Program Version,EnergyPlus, Version 23.1.0-87ed9199d4, YMD=2023.10.22 02:15
! <Version>, Version ID
 Version, 23.1
! <Timesteps per Hour>, #TimeSteps, Minutes per TimeStep {minutes}
 Timesteps per Hour,  5, 12
! <System Convergence Limits>, Minimum System TimeStep {minutes}, Max HVAC Iterations, Minimum Plant Iterations, Maximum Plant Iterations
 System Convergence Limits, 1, 20, 2, 8
! <Simulation Control>, Do Zone Sizing, Do System Sizing, Do Plant Sizing, Do Design Days, Do Weather Simulation, Do HVAC Sizing Simulation
 Simulation Control, Yes, Yes, Yes, No, Yes, Yes
! <Performance Precision Tradeoffs>, Use Coil Direct Simulation, Zone Radiant Exchange Algorithm, Override Mode, Number of Timestep In Hour, Force Euler Method, Minimum Number of Warmup Days, Force Suppress All Begin Environment Resets, Minimum System Timestep, MaxZoneTempDiff, MaxAllowedDelTemp
 Performance Precision Tradeoffs, No, ScriptF, Normal, 5, No, 1, No, 1.0, 0.300, 2.0000E-003
! <Output Reporting Tolerances>, Tolerance for Time Heating Setpoint Not Met, Tolerance for Zone Cooling Setpoint Not Met Time
 Output Reporting Tolerances, 0.200, 0.200, 
! <Site:GroundTemperature:BuildingSurface>,Jan{C},Feb{C},Mar{C},Apr{C},May{C},Jun{C},Jul{C},Aug{C},Sep{C},Oct{C},Nov{C},Dec{C}
 Site:GroundTemperature:BuildingSurface,  18.00,  18.00,  18.00,  18.00,  18.00,  18.00,  18.00,  18.00,  18.00,  18.00,  18.00,  18.00
! <Site:GroundTemperature:FCfactorMethod>,Jan{C},Feb{C},Mar{C},Apr{C},May{C},Jun{C},Jul{C},Aug{C},Sep{C},Oct{C},Nov{C},Dec{C}
 Site:GroundTemperature:FCfactorMethod,   7.40,   0.00,  -7.60, -12.60,  -7.70,   0.30,   7.00,  14.20,  19.20,  20.90,  20.00,  15.40
! <Site:GroundTemperature:Shallow>,Jan{C},Feb{C},Mar{C},Apr{C},May{C},Jun{C},Jul{C},Aug{C},Sep{C},Oct{C},Nov{C},Dec{C}
 Site:GroundTemperature:Shallow,  13.00,  13.00,  13.00,  13.00,  13.00,  13.00,  13.00,  13.00,  13.00,  13.00,  13.00,  13.00
! <Site:GroundTemperature:Deep>,Jan{C},Feb{C},Mar{C},Apr{C},May{C},Jun{C},Jul{C},Aug{C},Sep{C},Oct{C},Nov{C},Dec{C}
 Site:GroundTemperature:Deep,  16.00,  16.00,  16.00,  16.00,  16.00,  16.00,  16.00,  16.00,  16.00,  16.00,  16.00,  16.00
! <Site:GroundReflectance>,Jan{dimensionless},Feb{dimensionless},Mar{dimensionless},Apr{dimensionless},May{dimensionless},Jun{dimensionless},Jul{dimensionless},Aug{dimensionless},Sep{dimensionless},Oct{dimensionless},Nov{dimensionless},Dec{dimensionless}
 Site:GroundReflectance,  0.20,  0.20,  0.20,  0.20,  0.20,  0.20,  0.20,  0.20,  0.20,  0.20,  0.20,  0.20
! <Site:GroundReflectance:SnowModifier>, Normal, Daylighting {dimensionless}
 Site:GroundReflectance:SnowModifier,   1.000,   1.000
! <Site:GroundReflectance:Snow>,Jan{dimensionless},Feb{dimensionless},Mar{dimensionless},Apr{dimensionless},May{dimensionless},Jun{dimensionless},Jul{dimensionless},Aug{dimensionless},Sep{dimensionless},Oct{dimensionless},Nov{dimensionless},Dec{dimensionless}
 Site:GroundReflectance:Snow,  0.20,  0.20,  0.20,  0.20,  0.20,  0.20,  0.20,  0.20,  0.20,  0.20,  0.20,  0.20
! <Site:GroundReflectance:Snow:Daylighting>,Jan{dimensionless},Feb{dimensionless},Mar{dimensionless},Apr{dimensionless},May{dimensionless},Jun{dimensionless},Jul{dimensionless},Aug{dimensionless},Sep{dimensionless},Oct{dimensionless},Nov{dimensionless},Dec{dimensionless}
 Site:GroundReflectance:Snow:Daylighting,  0.20,  0.20,  0.20,  0.20,  0.20,  0.20,  0.20,  0.20,  0.20,  0.20,  0.20,  0.20
! <Environment:Weather Station>,Wind Sensor Height Above Ground {m},Wind Speed Profile Exponent {},Wind Speed Profile Boundary Layer Thickness {m},Air Temperature Sensor Height Above Ground {m},Wind Speed Modifier Coefficient-Internal,Temperature Modifier Coefficient-Internal
Environment:Weather Station,10.000,0.140,270.000,1.500,1.586,9.750E-003
! <Site:Location>, Location Name, Latitude {N+/S- Deg}, Longitude {E+/W- Deg},  Time Zone Number {GMT+/-}, Elevation {m},  Standard Pressure at Elevation {Pa}, Standard RhoAir at Elevation
Site:Location,MOSCOW - RUS IWEC Data WMO#=276120,55.75,37.63,3.00,156.00,99465,1.1822
! <Site Water Mains Temperature Information>,Calculation Method{},Water Mains Temperature Schedule Name{},Annual Average Outdoor Air Temperature{C},Maximum Difference In Monthly Average Outdoor Air Temperatures{deltaC},Fixed Default Water Mains Temperature{C}
Site Water Mains Temperature Information,Correlation,NA,6.38,33.50,NA
! <Building Information>, Building Name,North Axis {deg},Terrain,  Loads Convergence Tolerance Value,Temperature Convergence Tolerance Value,  Solar Distribution,Maximum Number of Warmup Days,Minimum Number of Warmup Days
 Building Information,DataCenterModel_Multizone,0.000,City,4.00000E-002,0.40000,FullExterior,365,1
! <Inside Convection Algorithm>, Algorithm {Simple | TARP | CeilingDiffuser | AdaptiveConvectionAlgorithm}
Inside Convection Algorithm,TARP
! <Outside Convection Algorithm>, Algorithm {SimpleCombined | TARP | MoWitt | DOE-2 | AdaptiveConvectionAlgorithm}
Outside Convection Algorithm,TARP
! <Sky Radiance Distribution>, Value {Anisotropic}
Sky Radiance Distribution,Anisotropic
! <Zone Air Solution Algorithm>, Algorithm {ThirdOrderBackwardDifference | AnalyticalSolution | EulerMethod}, Space Heat Balance Sizing, Space Heat Balance Simulation
 Zone Air Solution Algorithm, ThirdOrderBackwardDifference, No, No
! <Zone Air Carbon Dioxide Balance Simulation>, Simulation {Yes/No}, Carbon Dioxide Concentration
 Zone Air Carbon Dioxide Balance Simulation, Yes,YES
! <Zone Air Generic Contaminant Balance Simulation>, Simulation {Yes/No}, Generic Contaminant Concentration
 Zone Air Generic Contaminant Balance Simulation, No,N/A
! <Zone Air Mass Flow Balance Simulation>, Enforce Mass Balance, Adjust Zone Mixing and Return {AdjustMixingOnly | AdjustReturnOnly | AdjustMixingThenReturn | AdjustReturnThenMixing | None}, Adjust Zone Infiltration {AddInfiltration | AdjustInfiltration | None}, Infiltration Zones {MixingSourceZonesOnly | AllZones}
 Zone Air Mass Flow Balance Simulation, No,N/A,N/A,N/A
! <HVACSystemRootFindingAlgorithm>, Value {RegulaFalsi | Bisection | BisectionThenRegulaFalsi | RegulaFalsiThenBisection}
 HVACSystemRootFindingAlgorithm, RegulaFalsi
! <Environment:Site Atmospheric Variation>,Wind Speed Profile Exponent {},Wind Speed Profile Boundary Layer Thickness {m},Air Temperature Gradient Coefficient {K/m}
Environment:Site Atmospheric Variation,0.330,460.000,6.500000E-003
! <Surface Geometry>,Starting Corner,Vertex Input Direction,Coordinate System,Daylight Reference Point Coordinate System,Rectangular (Simple) Surface Coordinate System
 Surface Geometry,UpperLeftCorner,Counterclockwise,RelativeCoordinateSystem,RelativeCoordinateSystem,RelativeToZoneOrigin
! <Surface Heat Transfer Algorithm>, Value {CTF - ConductionTransferFunction | EMPD - MoisturePenetrationDepthConductionTransferFunction | CondFD - ConductionFiniteDifference | HAMT - CombinedHeatAndMoistureFiniteElement} - Description,Inside Surface Max Temperature Limit{C}, Surface Convection Coefficient Lower Limit {W/m2-K}, Surface Convection Coefficient Upper Limit {W/m2-K}
Surface Heat Transfer Algorithm, CTF - ConductionTransferFunction,200,0.10,1000.0
! <Shading Summary>, Number of Fixed Detached Shades, Number of Building Detached Shades, Number of Attached Shades
 Shading Summary,0,0,0
! <Zone Summary>, Number of Zones, Number of Zone Surfaces, Number of SubSurfaces
 Zone Summary,12,82,0
! <Zone Information>,Zone Name,North Axis {deg},Origin X-Coordinate {m},Origin Y-Coordinate {m},Origin Z-Coordinate {m},Centroid X-Coordinate {m},Centroid Y-Coordinate {m},Centroid Z-Coordinate {m},Type,Zone Multiplier,Zone List Multiplier,Minimum X {m},Maximum X {m},Minimum Y {m},Maximum Y {m},Minimum Z {m},Maximum Z {m},Ceiling Height {m},Volume {m3},Zone Inside Convection Algorithm {Simple-Detailed-CeilingDiffuser-TrombeWall},Zone Outside Convection Algorithm {Simple-Detailed-Tarp-MoWitt-DOE-2-BLAST}, Floor Area {m2},Exterior Gross Wall Area {m2},Exterior Net Wall Area {m2},Exterior Window Area {m2}, Number of Surfaces, Number of SubSurfaces, Number of Shading SubSurfaces,  Part of Total Building Area
 Zone Information, THERMAL ZONE 1 HOT,0.0,0.00,0.00,0.00,1.50,9.00,4.44,1,1,1,0.00,3.00,0.00,18.00,2.44,6.44,4.00,216.00,TARP,TARP,54.00,96.00,96.00,0.00,5,0,1,Yes
 Zone Information, THERMAL ZONE 10 COLD,0.0,0.00,0.00,0.00,27.00,9.00,4.44,1,1,1,26.00,28.00,0.00,18.00,2.44,6.44,4.00,144.00,TARP,TARP,36.00,16.00,16.00,0.00,4,0,2,Yes
 Zone Information, THERMAL ZONE 11 HOT LAST,0.0,0.00,0.00,0.00,29.50,9.00,4.44,1,1,1,28.00,31.00,0.00,18.00,2.44,6.44,4.00,216.00,TARP,TARP,54.00,96.00,96.00,0.00,5,0,1,Yes
 Zone Information, THERMAL ZONE 2 COLD,0.0,0.00,0.00,0.00,4.00,9.00,4.44,1,1,1,3.00,5.00,0.00,18.00,2.44,6.44,4.00,144.00,TARP,TARP,36.00,16.00,16.00,0.00,4,0,2,Yes
 Zone Information, THERMAL ZONE 3 HOT,0.0,0.00,0.00,0.00,7.00,9.00,4.44,1,1,1,5.00,9.00,0.00,18.00,2.44,6.44,4.00,288.00,TARP,TARP,72.00,32.00,32.00,0.00,4,0,2,Yes
 Zone Information, THERMAL ZONE 4 COLD,0.0,0.00,0.00,0.00,10.00,9.00,4.44,1,1,1,9.00,11.00,0.00,18.00,2.44,6.44,4.00,144.00,TARP,TARP,36.00,16.00,16.00,0.00,4,0,2,Yes
 Zone Information, THERMAL ZONE 5 HOT,0.0,0.00,0.00,0.00,13.00,9.00,4.44,1,1,1,11.00,15.00,0.00,18.00,2.44,6.44,4.00,288.00,TARP,TARP,72.00,32.00,32.00,0.00,4,0,2,Yes
 Zone Information, THERMAL ZONE 6 COLD,0.0,0.00,0.00,0.00,16.00,9.00,4.44,1,1,1,15.00,17.00,0.00,18.00,2.44,6.44,4.00,144.00,TARP,TARP,36.00,16.00,16.00,0.00,4,0,2,Yes
 Zone Information, THERMAL ZONE 7 HOT,0.0,0.00,0.00,0.00,19.00,9.00,4.44,1,1,1,17.00,21.00,0.00,18.00,2.44,6.44,4.00,288.00,TARP,TARP,72.00,32.00,32.00,0.00,4,0,2,Yes
 Zone Information, THERMAL ZONE 8 COLD,0.0,0.00,0.00,0.00,22.00,9.00,4.44,1,1,1,21.00,23.00,0.00,18.00,2.44,6.44,4.00,144.00,TARP,TARP,36.00,16.00,16.00,0.00,4,0,2,Yes
 Zone Information, THERMAL ZONE 9 HOT,0.0,0.00,0.00,0.00,24.50,9.00,4.44,1,1,1,23.00,26.00,0.00,18.00,2.44,6.44,4.00,216.00,TARP,TARP,54.00,24.00,24.00,0.00,4,0,2,Yes
 Zone Information, THERMAL ZONE SUPPLY PLENUM,0.0,0.00,0.00,0.00,15.50,9.00,1.22,1,1,1,0.00,31.00,0.00,18.00,0.00,2.44,2.44,1360.63,TARP,TARP,558.00,238.96,238.96,0.00,16,0,0,No
! <Zone Internal Gains Nominal>,Zone Name, Floor Area {m2},# Occupants,Area per Occupant {m2/person},Occupant per Area {person/m2},Interior Lighting {W/m2},Electric Load {W/m2},Gas Load {W/m2},Other Load {W/m2},Hot Water Eq {W/m2},Steam Equipment {W/m2},Sum Loads per Area {W/m2},Outdoor Controlled Baseboard Heat
 Zone Internal Gains Nominal, THERMAL ZONE 1 HOT,54.00,0.0,N/A,0.000,3.000,500.000,0.000,0.000,0.000,0.000,503.000,No
 Zone Internal Gains Nominal, THERMAL ZONE 10 COLD,36.00,0.0,N/A,0.000,3.000,0.000,0.000,0.000,0.000,0.000,3.000,No
 Zone Internal Gains Nominal, THERMAL ZONE 11 HOT LAST,54.00,0.0,N/A,0.000,3.000,500.000,0.000,0.000,0.000,0.000,503.000,No
 Zone Internal Gains Nominal, THERMAL ZONE 2 COLD,36.00,0.0,N/A,0.000,3.000,0.000,0.000,0.000,0.000,0.000,3.000,No
 Zone Internal Gains Nominal, THERMAL ZONE 3 HOT,72.00,0.0,N/A,0.000,3.000,1000.000,0.000,0.000,0.000,0.000,1003.000,No
 Zone Internal Gains Nominal, THERMAL ZONE 4 COLD,36.00,0.0,N/A,0.000,3.000,0.000,0.000,0.000,0.000,0.000,3.000,No
 Zone Internal Gains Nominal, THERMAL ZONE 5 HOT,72.00,0.0,N/A,0.000,3.000,1000.000,0.000,0.000,0.000,0.000,1003.000,No
 Zone Internal Gains Nominal, THERMAL ZONE 6 COLD,36.00,0.0,N/A,0.000,3.000,0.000,0.000,0.000,0.000,0.000,3.000,No
 Zone Internal Gains Nominal, THERMAL ZONE 7 HOT,72.00,0.0,N/A,0.000,3.000,1000.000,0.000,0.000,0.000,0.000,1003.000,No
 Zone Internal Gains Nominal, THERMAL ZONE 8 COLD,36.00,0.0,N/A,0.000,3.000,0.000,0.000,0.000,0.000,0.000,3.000,No
 Zone Internal Gains Nominal, THERMAL ZONE 9 HOT,54.00,0.0,N/A,0.000,3.000,1000.000,0.000,0.000,0.000,0.000,1003.000,No
 Zone Internal Gains Nominal, THERMAL ZONE SUPPLY PLENUM,558.00,0.0,N/A,0.000,0.000,0.000,0.000,0.000,0.000,0.000,0.000,No
! <Lights Internal Gains Nominal>,Name,Schedule Name,Zone Name,Zone Floor Area {m2},# Zone Occupants,Lighting Level {W},Lights/Floor Area {W/m2},Lights per person {W/person},Fraction Return Air,Fraction Radiant,Fraction Short Wave,Fraction Convected,Fraction Replaceable,End-Use Category,Nominal Minimum Lighting Level {W},Nominal Maximum Lighting Level {W}
 Lights Internal Gains Nominal, ZONE_2_COLD LIGTS_LOAD_DC,DATACENTER LIGHTING_SCH,THERMAL ZONE 2 COLD,36.00,0.0,108.000,3.000,N/A,0.000,0.700,0.200,0.100,1.000,General,108.000,108.000
 Lights Internal Gains Nominal, ZONE_3_HOT LIGTS_LOAD_DC,DATACENTER LIGHTING_SCH,THERMAL ZONE 3 HOT,72.00,0.0,216.000,3.000,N/A,0.000,0.700,0.200,0.100,1.000,General,216.000,216.000
 Lights Internal Gains Nominal, ZONE_6_COLD LIGTS_LOAD_DC,DATACENTER LIGHTING_SCH,THERMAL ZONE 6 COLD,36.00,0.0,108.000,3.000,N/A,0.000,0.700,0.200,0.100,1.000,General,108.000,108.000
 Lights Internal Gains Nominal, ZONE_11_HOT_LAST LIGTS_LOAD_DC,DATACENTER LIGHTING_SCH,THERMAL ZONE 11 HOT LAST,54.00,0.0,162.000,3.000,N/A,0.000,0.700,0.200,0.100,1.000,General,162.000,162.000
 Lights Internal Gains Nominal, ZONE_4_COLD LIGTS_LOAD_DC,DATACENTER LIGHTING_SCH,THERMAL ZONE 4 COLD,36.00,0.0,108.000,3.000,N/A,0.000,0.700,0.200,0.100,1.000,General,108.000,108.000
 Lights Internal Gains Nominal, ZONE_10_COLD LIGTS_LOAD_DC,DATACENTER LIGHTING_SCH,THERMAL ZONE 10 COLD,36.00,0.0,108.000,3.000,N/A,0.000,0.700,0.200,0.100,1.000,General,108.000,108.000
 Lights Internal Gains Nominal, ZONE_1_HOT_FIRST LIGTS_LOAD_DC,DATACENTER LIGHTING_SCH,THERMAL ZONE 1 HOT,54.00,0.0,162.000,3.000,N/A,0.000,0.700,0.200,0.100,1.000,General,162.000,162.000
 Lights Internal Gains Nominal, ZONE_8_COLD LIGTS_LOAD_DC,DATACENTER LIGHTING_SCH,THERMAL ZONE 8 COLD,36.00,0.0,108.000,3.000,N/A,0.000,0.700,0.200,0.100,1.000,General,108.000,108.000
 Lights Internal Gains Nominal, ZONE_9_HOT LIGTS_LOAD_DC,DATACENTER LIGHTING_SCH,THERMAL ZONE 9 HOT,54.00,0.0,162.000,3.000,N/A,0.000,0.700,0.200,0.100,1.000,General,162.000,162.000
 Lights Internal Gains Nominal, ZONE_5_HOT LIGTS_LOAD_DC,DATACENTER LIGHTING_SCH,THERMAL ZONE 5 HOT,72.00,0.0,216.000,3.000,N/A,0.000,0.700,0.200,0.100,1.000,General,216.000,216.000
 Lights Internal Gains Nominal, ZONE_7_HOT LIGTS_LOAD_DC,DATACENTER LIGHTING_SCH,THERMAL ZONE 7 HOT,72.00,0.0,216.000,3.000,N/A,0.000,0.700,0.200,0.100,1.000,General,216.000,216.000
! <ElectricEquipment Internal Gains Nominal>,Name,Schedule Name,Zone Name,Zone Floor Area {m2},# Zone Occupants,Equipment Level {W},Equipment/Floor Area {W/m2},Equipment per person {W/person},Fraction Latent,Fraction Radiant,Fraction Lost,Fraction Convected,End-Use SubCategory,Nominal Minimum Equipment Level {W},Nominal Maximum Equipment Level {W}
 ElectricEquipment Internal Gains Nominal, ELECTRIC EQUIPMENT 5,DATACENTER EQUIPMENT_SCH,THERMAL ZONE 1 HOT,54.00,0.0,27000.000,500.000,N/A,0.000,0.120,0.000,0.880,General,27000.000,27000.000
 ElectricEquipment Internal Gains Nominal, ELECTRIC EQUIPMENT 2,DATACENTER EQUIPMENT_SCH,THERMAL ZONE 10 COLD,36.00,0.0,0.000,0.000,N/A,0.000,0.000,0.000,1.000,General,0.000,0.000
 ElectricEquipment Internal Gains Nominal, ELECTRIC EQUIPMENT 3,DATACENTER EQUIPMENT_SCH,THERMAL ZONE 11 HOT LAST,54.00,0.0,27000.000,500.000,N/A,0.000,0.120,0.000,0.880,General,27000.000,27000.000
 ElectricEquipment Internal Gains Nominal, ELECTRIC EQUIPMENT 4,DATACENTER EQUIPMENT_SCH,THERMAL ZONE 2 COLD,36.00,0.0,0.000,0.000,N/A,0.000,0.000,0.000,1.000,General,0.000,0.000
 ElectricEquipment Internal Gains Nominal, ELECTRIC EQUIPMENT 6,DATACENTER EQUIPMENT_SCH,THERMAL ZONE 3 HOT,72.00,0.0,72000.000,1000.000,N/A,0.000,0.120,0.000,0.880,General,72000.000,72000.000
 ElectricEquipment Internal Gains Nominal, ELECTRIC EQUIPMENT 7,DATACENTER EQUIPMENT_SCH,THERMAL ZONE 4 COLD,36.00,0.0,0.000,0.000,N/A,0.000,0.000,0.000,1.000,General,0.000,0.000
 ElectricEquipment Internal Gains Nominal, ELECTRIC EQUIPMENT 8,DATACENTER EQUIPMENT_SCH,THERMAL ZONE 5 HOT,72.00,0.0,72000.000,1000.000,N/A,0.000,0.120,0.000,0.880,General,72000.000,72000.000
 ElectricEquipment Internal Gains Nominal, ELECTRIC EQUIPMENT 9,DATACENTER EQUIPMENT_SCH,THERMAL ZONE 6 COLD,36.00,0.0,0.000,0.000,N/A,0.000,0.000,0.000,1.000,General,0.000,0.000
 ElectricEquipment Internal Gains Nominal, ELECTRIC EQUIPMENT 10,DATACENTER EQUIPMENT_SCH,THERMAL ZONE 7 HOT,72.00,0.0,72000.000,1000.000,N/A,0.000,0.120,0.000,0.880,General,72000.000,72000.000
 ElectricEquipment Internal Gains Nominal, ELECTRIC EQUIPMENT 11,DATACENTER EQUIPMENT_SCH,THERMAL ZONE 8 COLD,36.00,0.0,0.000,0.000,N/A,0.000,0.000,0.000,1.000,General,0.000,0.000
 ElectricEquipment Internal Gains Nominal, ELECTRIC EQUIPMENT 12,DATACENTER EQUIPMENT_SCH,THERMAL ZONE 9 HOT,54.00,0.0,54000.000,1000.000,N/A,0.000,0.120,0.000,0.880,General,54000.000,54000.000
! <Shadowing/Sun Position Calculations Annual Simulations>, Shading Calculation Method, Shading Calculation Update Frequency Method, Shading Calculation Update Frequency {days}, Maximum Figures in Shadow Overlap Calculations {}, Polygon Clipping Algorithm, Pixel Counting Resolution, Sky Diffuse Modeling Algorithm, Output External Shading Calculation Results, Disable Self-Shading Within Shading Zone Groups, Disable Self-Shading From Shading Zone Groups to Other Zones
Shadowing/Sun Position Calculations Annual Simulations,PolygonClipping,Periodic,20,15000,SutherlandHodgman,512,SimpleSkyDiffuseModeling,No,No,No
! <CrossMixing Airflow Stats Nominal>,Name,Schedule Name,Zone Name, Zone Floor Area {m2}, # Zone Occupants,Design Volume Flow Rate {m3/s},Volume Flow Rate/Floor Area {m3/s-m2},Volume Flow Rate/person Area {m3/s-person},ACH - Air Changes per Hour,From/Source Zone,Delta Temperature {C}
 CrossMixing Airflow Stats Nominal, Air Boundary Mixing Zones 1 and 4,Constant-1.0,THERMAL ZONE 1 HOT,54.00,0.0,2.000,3.704E-002,N/A,33.333,THERMAL ZONE 2 COLD,0.00
 CrossMixing Airflow Stats Nominal, Air Boundary Mixing Zones 11 and 2,Constant-1.0,THERMAL ZONE 9 HOT,54.00,0.0,2.000,3.704E-002,N/A,33.333,THERMAL ZONE 10 COLD,0.00
 CrossMixing Airflow Stats Nominal, Air Boundary Mixing Zones 2 and 3,Constant-1.0,THERMAL ZONE 10 COLD,36.00,0.0,2.000,5.556E-002,N/A,50.000,THERMAL ZONE 11 HOT LAST,0.00
 CrossMixing Airflow Stats Nominal, Air Boundary Mixing Zones 4 and 5,Constant-1.0,THERMAL ZONE 2 COLD,36.00,0.0,2.000,5.556E-002,N/A,50.000,THERMAL ZONE 3 HOT,0.00
 CrossMixing Airflow Stats Nominal, Air Boundary Mixing Zones 5 and 6,Constant-1.0,THERMAL ZONE 3 HOT,72.00,0.0,2.000,2.778E-002,N/A,25.000,THERMAL ZONE 4 COLD,0.00
 CrossMixing Airflow Stats Nominal, Air Boundary Mixing Zones 6 and 7,Constant-1.0,THERMAL ZONE 4 COLD,36.00,0.0,2.000,5.556E-002,N/A,50.000,THERMAL ZONE 5 HOT,0.00
 CrossMixing Airflow Stats Nominal, Air Boundary Mixing Zones 7 and 8,Constant-1.0,THERMAL ZONE 5 HOT,72.00,0.0,2.000,2.778E-002,N/A,25.000,THERMAL ZONE 6 COLD,0.00
 CrossMixing Airflow Stats Nominal, Air Boundary Mixing Zones 8 and 9,Constant-1.0,THERMAL ZONE 6 COLD,36.00,0.0,2.000,5.556E-002,N/A,50.000,THERMAL ZONE 7 HOT,0.00
 CrossMixing Airflow Stats Nominal, Air Boundary Mixing Zones 9 and 10,Constant-1.0,THERMAL ZONE 7 HOT,72.00,0.0,2.000,2.778E-002,N/A,25.000,THERMAL ZONE 8 COLD,0.00
 CrossMixing Airflow Stats Nominal, Air Boundary Mixing Zones 10 and 11,Constant-1.0,THERMAL ZONE 8 COLD,36.00,0.0,2.000,5.556E-002,N/A,50.000,THERMAL ZONE 9 HOT,0.00
! <AirFlow Model>, Simple
 AirFlow Model, Simple
! <RoomAir Model>, Zone Name, Mixing/Mundt/UCSDDV/UCSDCV/UCSDUFI/UCSDUFE/User Defined
RoomAir Model,THERMAL ZONE 1 HOT,Mixing/Well-Stirred
RoomAir Model,THERMAL ZONE 10 COLD,Mixing/Well-Stirred
RoomAir Model,THERMAL ZONE 11 HOT LAST,Mixing/Well-Stirred
RoomAir Model,THERMAL ZONE 2 COLD,Mixing/Well-Stirred
RoomAir Model,THERMAL ZONE 3 HOT,Mixing/Well-Stirred
RoomAir Model,THERMAL ZONE 4 COLD,Mixing/Well-Stirred
RoomAir Model,THERMAL ZONE 5 HOT,Mixing/Well-Stirred
RoomAir Model,THERMAL ZONE 6 COLD,Mixing/Well-Stirred
RoomAir Model,THERMAL ZONE 7 HOT,Mixing/Well-Stirred
RoomAir Model,THERMAL ZONE 8 COLD,Mixing/Well-Stirred
RoomAir Model,THERMAL ZONE 9 HOT,Mixing/Well-Stirred
RoomAir Model,THERMAL ZONE SUPPLY PLENUM,Mixing/Well-Stirred
! <AirflowNetwork Model:Control>, No Multizone or Distribution/Multizone with Distribution/Multizone without Distribution/Multizone with Distribution only during Fan Operation
AirflowNetwork Model:Control,NoMultizoneOrDistribution
! <Zone Volume Capacitance Multiplier>, Sensible Heat Capacity Multiplier, Moisture Capacity Multiplier, Carbon Dioxide Capacity Multiplier, Generic Contaminant Capacity Multiplier
Zone Volume Capacitance Multiplier,   1.000 ,   1.000,   1.000,   1.000
! <Load Timesteps in Zone Design Calculation Averaging Window>, Value
 Load Timesteps in Zone Design Calculation Averaging Window,    5
! <Heating Sizing Factor Information>, Sizing Factor ID, Value
 Heating Sizing Factor Information, Global,   1.0000    
! <Cooling Sizing Factor Information>, Sizing Factor ID, Value
 Cooling Sizing Factor Information, Global,   1.2850    
 Cooling Sizing Factor Information, Zone THERMAL ZONE 10 COLD,   1.2850    
 Cooling Sizing Factor Information, Zone THERMAL ZONE 2 COLD,   1.2850    
 Cooling Sizing Factor Information, Zone THERMAL ZONE 4 COLD,   1.2850    
 Cooling Sizing Factor Information, Zone THERMAL ZONE 6 COLD,   1.2850    
 Cooling Sizing Factor Information, Zone THERMAL ZONE 8 COLD,   1.2850    
! <Zone Sizing Information>, Zone Name, Load Type, Calc Des Load {W}, User Des Load {W}, Calc Des Air Flow Rate {m3/s}, User Des Air Flow Rate {m3/s}, Design Day Name, Date/Time of Peak, Temperature at Peak {C}, Humidity Ratio at Peak {kgWater/kgDryAir}, Floor Area {m2}, # Occupants, Calc Outdoor Air Flow Rate {m3/s}, Calc DOAS Heat Addition Rate {W}
 Zone Sizing Information, THERMAL ZONE 10 COLD, Cooling, 55613.21959, 71462.98717, 8.82589, 11.34127, MOSCOW ANN CLG .4% CONDNS DB=>MWB, 7/21 14:36:00, 28.40000, 1.16389E-002, 36.00000, 0.00000, 1.09728E-002, 0.00000
 Zone Sizing Information, THERMAL ZONE 10 COLD, Heating, 0.00000, 0.00000, 0.00000, 1.09728E-002, ROCHESTER INTERNATIONAL ARPT ANN HTG 99.6% CONDNS DB, 1/21 06:48:00, -26.20000, 3.61342E-004, 36.00000, 0.00000, 1.09728E-002, 0.00000
 Zone Sizing Information, THERMAL ZONE 2 COLD, Cooling, 63271.60917, 81304.01779, 10.04129, 12.90305, MOSCOW ANN CLG .4% CONDNS DB=>MWB, 7/21 16:12:00, 27.76920, 1.16379E-002, 36.00000, 0.00000, 1.09728E-002, 0.00000
 Zone Sizing Information, THERMAL ZONE 2 COLD, Heating, 0.00000, 0.00000, 0.00000, 1.09728E-002, ROCHESTER INTERNATIONAL ARPT ANN HTG 99.6% CONDNS DB, 1/21 01:48:00, -26.20000, 3.61342E-004, 36.00000, 0.00000, 1.09728E-002, 0.00000
 Zone Sizing Information, THERMAL ZONE 4 COLD, Cooling, 68747.38572, 88340.39065, 10.91030, 14.01973, MOSCOW ANN CLG .4% CONDNS DB=>MWB, 7/21 15:12:00, 28.30040, 1.16388E-002, 36.00000, 0.00000, 1.09728E-002, 0.00000
 Zone Sizing Information, THERMAL ZONE 4 COLD, Heating, 0.00000, 0.00000, 0.00000, 1.09728E-002, ROCHESTER INTERNATIONAL ARPT ANN HTG 99.6% CONDNS DB, 1/21 04:36:00, -26.20000, 3.61342E-004, 36.00000, 0.00000, 1.09728E-002, 0.00000
 Zone Sizing Information, THERMAL ZONE 6 COLD, Cooling, 68747.38572, 88340.39065, 10.91030, 14.01973, MOSCOW ANN CLG .4% CONDNS DB=>MWB, 7/21 15:12:00, 28.30040, 1.16388E-002, 36.00000, 0.00000, 1.09728E-002, 0.00000
 Zone Sizing Information, THERMAL ZONE 6 COLD, Heating, 0.00000, 0.00000, 0.00000, 1.09728E-002, ROCHESTER INTERNATIONAL ARPT ANN HTG 99.6% CONDNS DB, 1/21 14:12:00, -26.20000, 3.61342E-004, 36.00000, 0.00000, 1.09728E-002, 0.00000
 Zone Sizing Information, THERMAL ZONE 8 COLD, Cooling, 61048.12727, 78446.84354, 9.68842, 12.44962, MOSCOW ANN CLG .4% CONDNS DB=>MWB, 7/21 15:12:00, 28.30040, 1.16388E-002, 36.00000, 0.00000, 1.09728E-002, 0.00000
 Zone Sizing Information, THERMAL ZONE 8 COLD, Heating, 0.00000, 0.00000, 0.00000, 1.09728E-002, ROCHESTER INTERNATIONAL ARPT ANN HTG 99.6% CONDNS DB, 1/21 01:48:00, -26.20000, 3.61342E-004, 36.00000, 0.00000, 1.09728E-002, 0.00000
! <System Sizing Information>, System Name, Load Type, Peak Load Kind, User Design Capacity, Calc Des Air Flow Rate [m3/s], User Des Air Flow Rate [m3/s], Design Day Name, Date/Time of Peak
 System Sizing Information, CRAH, Cooling, Sensible, 513292.53, 64.72803, 64.72803, MOSCOW ANN CLG .4% CONDNS DB=>MWB, 7/21 05:00:00
 System Sizing Information, CRAH, Heating, Sensible, 3988.73, 5.48640E-002, 5.48640E-002, ROCHESTER INTERNATIONAL ARPT ANN HTG 99.6% CONDNS DB, 1/21 00:12:00
! <Component Sizing Information>, Component Type, Component Name, Input Field Description, Value
 Component Sizing Information, AirTerminal:SingleDuct:VAV:NoReheat, DATACENTER ZN VAV TERMINAL 11, Design Size Maximum Air Flow Rate [m3/s], 11.34127
 Component Sizing Information, AirTerminal:SingleDuct:VAV:NoReheat, DATACENTER ZN VAV TERMINAL 11, Design Size Constant Minimum Air Flow Fraction, 3.17425E-003
 Component Sizing Information, AirTerminal:SingleDuct:VAV:NoReheat, DATACENTER ZN VAV TERMINAL 11, User-Specified Constant Minimum Air Flow Fraction, 0.10000
 Component Sizing Information, AirTerminal:SingleDuct:VAV:NoReheat, DATACENTER ZN VAV TERMINAL 11, Design Size Minimum Air Flow Rate [m3/s], 1.13413
 Component Sizing Information, AirTerminal:SingleDuct:VAV:NoReheat, DATACENTER ZN VAV TERMINAL 4, Design Size Maximum Air Flow Rate [m3/s], 12.90305
 Component Sizing Information, AirTerminal:SingleDuct:VAV:NoReheat, DATACENTER ZN VAV TERMINAL 4, Design Size Constant Minimum Air Flow Fraction, 2.79004E-003
 Component Sizing Information, AirTerminal:SingleDuct:VAV:NoReheat, DATACENTER ZN VAV TERMINAL 4, User-Specified Constant Minimum Air Flow Fraction, 0.10000
 Component Sizing Information, AirTerminal:SingleDuct:VAV:NoReheat, DATACENTER ZN VAV TERMINAL 4, Design Size Minimum Air Flow Rate [m3/s], 1.29031
 Component Sizing Information, AirTerminal:SingleDuct:VAV:NoReheat, DATACENTER ZN VAV TERMINAL 6, Design Size Maximum Air Flow Rate [m3/s], 14.01973
 Component Sizing Information, AirTerminal:SingleDuct:VAV:NoReheat, DATACENTER ZN VAV TERMINAL 6, Design Size Constant Minimum Air Flow Fraction, 2.56781E-003
 Component Sizing Information, AirTerminal:SingleDuct:VAV:NoReheat, DATACENTER ZN VAV TERMINAL 6, User-Specified Constant Minimum Air Flow Fraction, 0.10000
 Component Sizing Information, AirTerminal:SingleDuct:VAV:NoReheat, DATACENTER ZN VAV TERMINAL 6, Design Size Minimum Air Flow Rate [m3/s], 1.40197
 Component Sizing Information, AirTerminal:SingleDuct:VAV:NoReheat, DATACENTER ZN VAV TERMINAL 8, Design Size Maximum Air Flow Rate [m3/s], 14.01973
 Component Sizing Information, AirTerminal:SingleDuct:VAV:NoReheat, DATACENTER ZN VAV TERMINAL 8, Design Size Constant Minimum Air Flow Fraction, 2.56781E-003
 Component Sizing Information, AirTerminal:SingleDuct:VAV:NoReheat, DATACENTER ZN VAV TERMINAL 8, User-Specified Constant Minimum Air Flow Fraction, 0.10000
 Component Sizing Information, AirTerminal:SingleDuct:VAV:NoReheat, DATACENTER ZN VAV TERMINAL 8, Design Size Minimum Air Flow Rate [m3/s], 1.40197
 Component Sizing Information, AirTerminal:SingleDuct:VAV:NoReheat, DATACENTER ZN VAV TERMINAL 10, Design Size Maximum Air Flow Rate [m3/s], 12.44962
 Component Sizing Information, AirTerminal:SingleDuct:VAV:NoReheat, DATACENTER ZN VAV TERMINAL 10, Design Size Constant Minimum Air Flow Fraction, 0.10000
 Component Sizing Information, AirTerminal:SingleDuct:VAV:NoReheat, DATACENTER ZN VAV TERMINAL 10, User-Specified Constant Minimum Air Flow Fraction, 0.10000
 Component Sizing Information, AirTerminal:SingleDuct:VAV:NoReheat, DATACENTER ZN VAV TERMINAL 10, Design Size Minimum Air Flow Rate [m3/s], 1.24496
 Component Sizing Information, AirLoopHVAC, CRAH, Sum of Air Terminal Maximum Heating Flow Rates [m3/s], 6.47334
 Component Sizing Information, AirLoopHVAC, CRAH, Sum of Air Terminal Minimum Heating Flow Rates [m3/s], 6.47334
 Component Sizing Information, AirLoopHVAC, CRAH, Sum of Air Terminal Maximum Flow Rates [m3/s], 64.73340
 Component Sizing Information, AirLoopHVAC, CRAH, Adjusted Heating Design Air Flow Rate [m3/s], 6.47334
 Component Sizing Information, AirLoopHVAC, CRAH, Adjusted Cooling Design Air Flow Rate [m3/s], 64.72803
 Component Sizing Information, AirLoopHVAC, CRAH, Adjusted Main Design Air Flow Rate [m3/s], 64.72803
 Component Sizing Information, AirLoopHVAC, CRAH, User Heating Air Flow Ratio [], 0.30000
 Component Sizing Information, AirLoopHVAC, CRAH, Calculated Heating Air Flow Ratio [], 0.10001
 Component Sizing Information, AirLoopHVAC, CRAH, Design Supply Air Flow Rate [m3/s], 64.72803
!<Controller:MechanicalVentilation>,Name,Availability Schedule Name,Demand Controlled Ventilation {Yes/No},System Outdoor Air Method,Zone Maximum Outdoor Air Fraction,Number of Zones,Zone Name,DSOA Name,DSZAD Name
 Controller:MechanicalVentilation,CRAH VENT CONTROLLER,DATACENTER MINOA_MOTORIZEDDAMPER_SCHED,No,ZoneSum,1.00,5,THERMAL ZONE 10 COLD,LARGEDATACENTERHIGHITE STANDALONEDATACENTER VENTILATION,,THERMAL ZONE 2 COLD,LARGEDATACENTERHIGHITE STANDALONEDATACENTER VENTILATION,,THERMAL ZONE 4 COLD,LARGEDATACENTERHIGHITE STANDALONEDATACENTER VENTILATION,,THERMAL ZONE 6 COLD,LARGEDATACENTERHIGHITE STANDALONEDATACENTER VENTILATION,,THERMAL ZONE 8 COLD,LARGEDATACENTERHIGHITE STANDALONEDATACENTER VENTILATION,
 Component Sizing Information, Controller:OutdoorAir, CRAH OA CONTROLLER, Maximum Outdoor Air Flow Rate [m3/s], 64.72803
 Component Sizing Information, Controller:OutdoorAir, CRAH OA CONTROLLER, Minimum Outdoor Air Flow Rate [m3/s], 5.48640E-002
 Component Sizing Information, Coil:Cooling:Water, CRAH WATER CLG COIL, Design Size Design Inlet Air Temperature [C], 18.00873
 Component Sizing Information, Coil:Cooling:Water, CRAH WATER CLG COIL, Design Size Design Inlet Water Temperature [C], 6.66667
 Component Sizing Information, Coil:Cooling:Water, CRAH WATER CLG COIL, Design Size Design Outlet Air Temperature [C], 9.73344
 Component Sizing Information, Coil:Cooling:Water, CRAH WATER CLG COIL, Design Size Design Inlet Air Humidity Ratio [kgWater/kgDryAir], 8.50266E-003
 Component Sizing Information, Coil:Cooling:Water, CRAH WATER CLG COIL, Design Size Design Outlet Air Humidity Ratio [kgWater/kgDryAir], 8.50000E-003
 Component Sizing Information, Coil:Cooling:Water, CRAH WATER CLG COIL, Design Size Design Coil Load [W], 646824.12108
 Component Sizing Information, Coil:Cooling:Water, CRAH WATER CLG COIL, Design Size Design Water Flow Rate [m3/s], 2.74629E-002
 Component Sizing Information, Coil:Cooling:Water, CRAH WATER CLG COIL, Design Size Design Air Flow Rate [m3/s], 64.72803
! <Water Cooling Coil Capacity Information>,Component Type,Name,Nominal Total Capacity {W},Nominal Sensible Capacity {W},Nominal Latent Capacity {W},Nominal Sensible Heat Ratio, Nominal Coil UA Value {W/C}, Nominal Coil Surface Area {m2}
Water Cooling Coil Capacity Information,Coil:Cooling:Water,CRAH WATER CLG COIL,1193372.62,935987.04,257385.58,0.78,155316.14,1575.30
 Component Sizing Information, Humidifier:Steam:Electric, CRAH ELECTRIC STEAM HUMIDIFIER, Design Size Nominal Capacity Volume [m3/s], 6.18596E-004
 Component Sizing Information, Humidifier:Steam:Electric, CRAH ELECTRIC STEAM HUMIDIFIER, Design Size Rated Power [W], 1603870.67824
 Component Sizing Information, Fan:VariableVolume, CRAH FAN, Design Size Maximum Flow Rate [m3/s], 64.72803
 Component Sizing Information, Controller:WaterCoil, CRAH WATER CLG COIL CONTROLLER, Maximum Actuated Flow [m3/s], 2.74629E-002
 Component Sizing Information, Controller:WaterCoil, CRAH WATER CLG COIL CONTROLLER, Controller Convergence Tolerance, 1.73394E-005
 Component Sizing Information, Pump:VariableSpeed, CHILLED WATER LOOP SECONDARY PUMP, Initial Design Flow Rate [m3/s], 2.74629E-002
 Component Sizing Information, Pump:VariableSpeed, CHILLED WATER LOOP SECONDARY PUMP, Initial Design Power Consumption [W], 5092.33595
 Component Sizing Information, PlantLoop, CHILLED WATER LOOP, Initial Maximum Loop Flow Rate [m3/s], 2.74629E-002
 Component Sizing Information, PlantLoop, CHILLED WATER LOOP, Initial Plant Loop Volume [m3], 3.29555
 Component Sizing Information, Pump:ConstantSpeed, CHILLED WATER LOOP PRIMARY PUMP, Initial Design Flow Rate [m3/s], 2.74629E-002
 Component Sizing Information, Pump:ConstantSpeed, CHILLED WATER LOOP PRIMARY PUMP, Initial Design Power Consumption [W], 1661.70963
 Component Sizing Information, HeatExchanger:FluidToFluid, INTEGRATED WATERSIDE ECONOMIZER HEAT EXCHANGER, Initial Loop Supply Side Design Fluid Flow Rate [m3/s], 2.74629E-002
 Component Sizing Information, HeatExchanger:FluidToFluid, INTEGRATED WATERSIDE ECONOMIZER HEAT EXCHANGER, Initial Loop Demand Side Design Fluid Flow Rate [m3/s], 2.74629E-002
 Component Sizing Information, HeatExchanger:FluidToFluid, INTEGRATED WATERSIDE ECONOMIZER HEAT EXCHANGER, Initial Heat Exchanger U-Factor Times Area Value [W/C], 37679.07501
 Component Sizing Information, HeatExchanger:FluidToFluid, INTEGRATED WATERSIDE ECONOMIZER HEAT EXCHANGER, Initial Loop-to-loop Temperature Difference Used to Size Heat Exchanger U-Factor Times Area Value [C], 17.16667
 Component Sizing Information, Chiller:Electric:EIR, 90.1-2013 WATERCOOLED  CENTRIFUGAL CHILLER 0 1231TONS 0.6KW/TON, Initial Design Size Reference Chilled Water Flow Rate [m3/s], 2.74629E-002
 Component Sizing Information, Chiller:Electric:EIR, 90.1-2013 WATERCOOLED  CENTRIFUGAL CHILLER 0 1231TONS 0.6KW/TON, Initial Design Size Reference Capacity [W], 646824.12108
 Component Sizing Information, Chiller:Electric:EIR, 90.1-2013 WATERCOOLED  CENTRIFUGAL CHILLER 0 1231TONS 0.6KW/TON, Initial Design Size Reference Condenser Fluid Flow Rate [m3/s], 3.22920E-002
 Component Sizing Information, PlantLoop, CONDENSER WATER LOOP, Initial Maximum Loop Flow Rate [m3/s], 0.23902
 Component Sizing Information, PlantLoop, CONDENSER WATER LOOP, Initial Plant Loop Volume [m3], 28.68236
 Component Sizing Information, Pump:ConstantSpeed, CONDENSER WATER LOOP CONSTANT PUMP, Initial Design Flow Rate [m3/s], 0.23902
 Component Sizing Information, Pump:ConstantSpeed, CONDENSER WATER LOOP CONSTANT PUMP, Initial Design Power Consumption [W], 47718.04676
 Component Sizing Information, CoolingTower:SingleSpeed, CENTRIFUGAL FAN CYCLING OPEN COOLING TOWER 40.2 GPM/HP, Initial Design Water Flow Rate [m3/s], 0.23902
 Component Sizing Information, CoolingTower:SingleSpeed, CENTRIFUGAL FAN CYCLING OPEN COOLING TOWER 40.2 GPM/HP, Initial Fan Power at Design Air Flow Rate [W], 58273.46465
 Component Sizing Information, CoolingTower:SingleSpeed, CENTRIFUGAL FAN CYCLING OPEN COOLING TOWER 40.2 GPM/HP, Initial Design Air Flow Rate [m3/s], 156.21902
 Component Sizing Information, CoolingTower:SingleSpeed, CENTRIFUGAL FAN CYCLING OPEN COOLING TOWER 40.2 GPM/HP, Initial U-Factor Times Area Value at Design Air Flow Rate [W/C], 335964.84508
 Component Sizing Information, CoolingTower:SingleSpeed, CENTRIFUGAL FAN CYCLING OPEN COOLING TOWER 40.2 GPM/HP, Initial Free Convection Regime Air Flow Rate [m3/s], 15.62190
 Component Sizing Information, CoolingTower:SingleSpeed, CENTRIFUGAL FAN CYCLING OPEN COOLING TOWER 40.2 GPM/HP, Initial Free Convection U-Factor Times Area Value [W/K], 33596.48451
 Component Sizing Information, PlantEquipmentOperation:ComponentSetPoint, CHILLED WATER LOOP SETPOINT OPERATION SCHEME, Design Water Flow Rate [m3/s] Equipment # 7, 0.23902
 Component Sizing Information, PlantEquipmentOperation:ComponentSetPoint, CHILLED WATER LOOP SETPOINT OPERATION SCHEME, Design Water Flow Rate [m3/s] Equipment # 7, 0.23902
! <Environment>,Environment Name,Environment Type, Start Date, End Date, Start DayOfWeek, Duration {#days}, Source:Start DayOfWeek,  Use Daylight Saving, Use Holidays, Apply Weekend Holiday Rule,  Use Rain Values, Use Snow Values, Sky Temperature Model
! <Environment:Special Days>, Special Day Name, Special Day Type, Source, Start Date, Duration {#days}
! <Environment:Daylight Saving>, Daylight Saving Indicator, Source, Start Date, End Date
! <Environment:WarmupDays>, NumberofWarmupDays
Environment,RUN PERIOD 1,WeatherFileRunPeriod,07/01/2006,07/30/2006,Saturday,30,Use RunPeriod Specified Day,No,No,No,Yes,Yes,Clark and Allen
Environment:Daylight Saving,Yes,InputFile,03/12,11/05
! <Environment:Design Day Data>, Max Dry-Bulb Temp {C}, Temp Range {dC}, Temp Range Ind Type, Hum Ind Type, Hum Ind Value at Max Temp, Hum Ind Units, Pressure {Pa}, Wind Direction {deg CW from N}, Wind Speed {m/s}, Clearness, Rain, Snow
! <Environment:Design Day Misc>,DayOfYear,ASHRAE A Coeff,ASHRAE B Coeff,ASHRAE C Coeff,Solar Constant-Annual Variation,Eq of Time {minutes}, Solar Declination Angle {deg}, Solar Model
Environment:Design Day Data,28.40,8.30,DefaultMultipliers,Wetbulb,20.10,{C},99465,150,1.6,0.00,No,No
Environment:Design Day Misc,202,1084.4,0.2082,0.1365,1.0,-6.23,20.6,ASHRAETau
Environment:WarmupDays,  3
! <Warmup Convergence Information>,Zone Name,Environment Type/Name,Average Warmup Temperature Difference {deltaC},Std Dev Warmup Temperature Difference {deltaC},Max Temperature Pass/Fail Convergence,Min Temperature Pass/Fail Convergence,Average Warmup Load Difference {W},Std Dev Warmup Load Difference {W},Heating Load Pass/Fail Convergence,Cooling Load Pass/Fail Convergence
 Warmup Convergence Information,THERMAL ZONE 1 HOT,SizingPeriod: MOSCOW ANN CLG .4% CONDNS DB=>MWB HVAC Sizing Pass 1,8.0005281828E-003,1.9250892570E-002,Pass,Pass,0.0000000000,0.0000000000,Pass,Pass
 Warmup Convergence Information,THERMAL ZONE 10 COLD,SizingPeriod: MOSCOW ANN CLG .4% CONDNS DB=>MWB HVAC Sizing Pass 1,5.3826554920E-003,2.5830328358E-002,Pass,Pass,8.6120670390E-004,3.3487956906E-003,Pass,Pass
 Warmup Convergence Information,THERMAL ZONE 11 HOT LAST,SizingPeriod: MOSCOW ANN CLG .4% CONDNS DB=>MWB HVAC Sizing Pass 1,7.9392073127E-003,1.8058398232E-002,Pass,Pass,0.0000000000,0.0000000000,Pass,Pass
 Warmup Convergence Information,THERMAL ZONE 2 COLD,SizingPeriod: MOSCOW ANN CLG .4% CONDNS DB=>MWB HVAC Sizing Pass 1,5.8644051518E-003,2.7295571992E-002,Pass,Pass,7.9771836677E-004,3.1635054511E-003,Pass,Pass
 Warmup Convergence Information,THERMAL ZONE 3 HOT,SizingPeriod: MOSCOW ANN CLG .4% CONDNS DB=>MWB HVAC Sizing Pass 1,6.0537571611E-003,2.3868658382E-002,Pass,Pass,0.0000000000,0.0000000000,Pass,Pass
 Warmup Convergence Information,THERMAL ZONE 4 COLD,SizingPeriod: MOSCOW ANN CLG .4% CONDNS DB=>MWB HVAC Sizing Pass 1,6.8858240437E-003,3.0453855091E-002,Pass,Pass,6.8650937216E-004,3.1109131961E-003,Pass,Pass
 Warmup Convergence Information,THERMAL ZONE 5 HOT,SizingPeriod: MOSCOW ANN CLG .4% CONDNS DB=>MWB HVAC Sizing Pass 1,6.5402505068E-003,2.5349612807E-002,Pass,Pass,0.0000000000,0.0000000000,Pass,Pass
 Warmup Convergence Information,THERMAL ZONE 6 COLD,SizingPeriod: MOSCOW ANN CLG .4% CONDNS DB=>MWB HVAC Sizing Pass 1,6.9242796905E-003,3.0617251103E-002,Pass,Pass,6.8063073799E-004,3.0714903464E-003,Pass,Pass
 Warmup Convergence Information,THERMAL ZONE 7 HOT,SizingPeriod: MOSCOW ANN CLG .4% CONDNS DB=>MWB HVAC Sizing Pass 1,6.4167261341E-003,2.4879542385E-002,Pass,Pass,0.0000000000,0.0000000000,Pass,Pass
 Warmup Convergence Information,THERMAL ZONE 8 COLD,SizingPeriod: MOSCOW ANN CLG .4% CONDNS DB=>MWB HVAC Sizing Pass 1,6.5705028576E-003,2.9649668385E-002,Pass,Pass,7.3046174130E-004,3.3110369570E-003,Pass,Pass
 Warmup Convergence Information,THERMAL ZONE 9 HOT,SizingPeriod: MOSCOW ANN CLG .4% CONDNS DB=>MWB HVAC Sizing Pass 1,5.6340165558E-003,2.2697449672E-002,Pass,Pass,0.0000000000,0.0000000000,Pass,Pass
 Warmup Convergence Information,THERMAL ZONE SUPPLY PLENUM,SizingPeriod: MOSCOW ANN CLG .4% CONDNS DB=>MWB HVAC Sizing Pass 1,6.8831886084E-002,0.3232907646,Pass,Pass,1.5792339115E-002,5.0294937088E-002,Pass,Pass
Environment:Design Day Data,24.00,8.30,DefaultMultipliers,Dewpoint,19.30,{C},99465,150,1.6,0.00,No,No
Environment:Design Day Misc,202,1084.4,0.2082,0.1365,1.0,-6.23,20.6,ASHRAETau
Environment:WarmupDays,  3
 Warmup Convergence Information,THERMAL ZONE 1 HOT,SizingPeriod: MOSCOW ANN CLG .4% CONDNS DP=>MDB HVAC Sizing Pass 1,4.8291846878E-003,2.8275252330E-003,Pass,Pass,0.0000000000,0.0000000000,Pass,Pass
 Warmup Convergence Information,THERMAL ZONE 10 COLD,SizingPeriod: MOSCOW ANN CLG .4% CONDNS DP=>MDB HVAC Sizing Pass 1,3.0687391571E-005,8.2079187290E-005,Pass,Pass,4.0230923890E-004,2.7995903360E-004,Pass,Pass
 Warmup Convergence Information,THERMAL ZONE 11 HOT LAST,SizingPeriod: MOSCOW ANN CLG .4% CONDNS DP=>MDB HVAC Sizing Pass 1,5.1160989272E-003,3.4555528021E-003,Pass,Pass,0.0000000000,0.0000000000,Pass,Pass
 Warmup Convergence Information,THERMAL ZONE 2 COLD,SizingPeriod: MOSCOW ANN CLG .4% CONDNS DP=>MDB HVAC Sizing Pass 1,3.2460871309E-005,8.6797878973E-005,Pass,Pass,3.3971977480E-004,2.1758671362E-004,Pass,Pass
 Warmup Convergence Information,THERMAL ZONE 3 HOT,SizingPeriod: MOSCOW ANN CLG .4% CONDNS DP=>MDB HVAC Sizing Pass 1,1.6847066930E-003,1.0318458751E-003,Pass,Pass,0.0000000000,0.0000000000,Pass,Pass
 Warmup Convergence Information,THERMAL ZONE 4 COLD,SizingPeriod: MOSCOW ANN CLG .4% CONDNS DP=>MDB HVAC Sizing Pass 1,3.3656694519E-005,9.0421488566E-005,Pass,Pass,2.0684500478E-004,1.3115500697E-004,Pass,Pass
 Warmup Convergence Information,THERMAL ZONE 5 HOT,SizingPeriod: MOSCOW ANN CLG .4% CONDNS DP=>MDB HVAC Sizing Pass 1,1.6846974560E-003,1.0319104004E-003,Pass,Pass,0.0000000000,0.0000000000,Pass,Pass
 Warmup Convergence Information,THERMAL ZONE 6 COLD,SizingPeriod: MOSCOW ANN CLG .4% CONDNS DP=>MDB HVAC Sizing Pass 1,3.3660157969E-005,9.0420479317E-005,Pass,Pass,2.0684490656E-004,1.3115536028E-004,Pass,Pass
 Warmup Convergence Information,THERMAL ZONE 7 HOT,SizingPeriod: MOSCOW ANN CLG .4% CONDNS DP=>MDB HVAC Sizing Pass 1,1.6847026261E-003,1.0318857932E-003,Pass,Pass,0.0000000000,0.0000000000,Pass,Pass
 Warmup Convergence Information,THERMAL ZONE 8 COLD,SizingPeriod: MOSCOW ANN CLG .4% CONDNS DP=>MDB HVAC Sizing Pass 1,3.2133738193E-005,8.6358632741E-005,Pass,Pass,2.2811330485E-004,1.4455789363E-004,Pass,Pass
 Warmup Convergence Information,THERMAL ZONE 9 HOT,SizingPeriod: MOSCOW ANN CLG .4% CONDNS DP=>MDB HVAC Sizing Pass 1,1.5266134594E-003,9.3519091791E-004,Pass,Pass,0.0000000000,0.0000000000,Pass,Pass
 Warmup Convergence Information,THERMAL ZONE SUPPLY PLENUM,SizingPeriod: MOSCOW ANN CLG .4% CONDNS DP=>MDB HVAC Sizing Pass 1,4.5555342420E-002,0.1718750646,Pass,Pass,1.2818895723E-002,4.2131005077E-002,Pass,Pass
Environment:Design Day Data,26.60,8.30,DefaultMultipliers,Enthalpy,62300.00,{J/kgDryAir},99465,150,1.6,0.00,No,No
Environment:Design Day Misc,202,1084.4,0.2082,0.1365,1.0,-6.23,20.6,ASHRAETau
Environment:WarmupDays,  3
 Warmup Convergence Information,THERMAL ZONE 1 HOT,SizingPeriod: MOSCOW ANN CLG .4% CONDNS ENTH=>MDB HVAC Sizing Pass 1,4.9113757887E-003,2.6777168315E-003,Pass,Pass,0.0000000000,0.0000000000,Pass,Pass
 Warmup Convergence Information,THERMAL ZONE 10 COLD,SizingPeriod: MOSCOW ANN CLG .4% CONDNS ENTH=>MDB HVAC Sizing Pass 1,3.3445019324E-005,8.2475513423E-005,Pass,Pass,4.0262872065E-004,2.4957470279E-004,Pass,Pass
 Warmup Convergence Information,THERMAL ZONE 11 HOT LAST,SizingPeriod: MOSCOW ANN CLG .4% CONDNS ENTH=>MDB HVAC Sizing Pass 1,5.1093367448E-003,3.3172524285E-003,Pass,Pass,0.0000000000,0.0000000000,Pass,Pass
 Warmup Convergence Information,THERMAL ZONE 2 COLD,SizingPeriod: MOSCOW ANN CLG .4% CONDNS ENTH=>MDB HVAC Sizing Pass 1,3.5313255020E-005,8.7116256537E-005,Pass,Pass,3.4332035234E-004,1.9248342799E-004,Pass,Pass
 Warmup Convergence Information,THERMAL ZONE 3 HOT,SizingPeriod: MOSCOW ANN CLG .4% CONDNS ENTH=>MDB HVAC Sizing Pass 1,1.6946098965E-003,9.7553396261E-004,Pass,Pass,0.0000000000,0.0000000000,Pass,Pass
 Warmup Convergence Information,THERMAL ZONE 4 COLD,SizingPeriod: MOSCOW ANN CLG .4% CONDNS ENTH=>MDB HVAC Sizing Pass 1,3.6584703450E-005,9.0417182002E-005,Pass,Pass,2.0810288168E-004,1.1989054089E-004,Pass,Pass
 Warmup Convergence Information,THERMAL ZONE 5 HOT,SizingPeriod: MOSCOW ANN CLG .4% CONDNS ENTH=>MDB HVAC Sizing Pass 1,1.6946162071E-003,9.7560347449E-004,Pass,Pass,0.0000000000,0.0000000000,Pass,Pass
 Warmup Convergence Information,THERMAL ZONE 6 COLD,SizingPeriod: MOSCOW ANN CLG .4% CONDNS ENTH=>MDB HVAC Sizing Pass 1,3.6581551803E-005,9.0404781671E-005,Pass,Pass,2.0810324284E-004,1.1988973767E-004,Pass,Pass
 Warmup Convergence Information,THERMAL ZONE 7 HOT,SizingPeriod: MOSCOW ANN CLG .4% CONDNS ENTH=>MDB HVAC Sizing Pass 1,1.6945998980E-003,9.7553210746E-004,Pass,Pass,0.0000000000,0.0000000000,Pass,Pass
 Warmup Convergence Information,THERMAL ZONE 8 COLD,SizingPeriod: MOSCOW ANN CLG .4% CONDNS ENTH=>MDB HVAC Sizing Pass 1,3.5013670399E-005,8.6419943551E-005,Pass,Pass,2.2978543739E-004,1.3191874428E-004,Pass,Pass
 Warmup Convergence Information,THERMAL ZONE 9 HOT,SizingPeriod: MOSCOW ANN CLG .4% CONDNS ENTH=>MDB HVAC Sizing Pass 1,1.5431628891E-003,8.7660735914E-004,Pass,Pass,0.0000000000,0.0000000000,Pass,Pass
 Warmup Convergence Information,THERMAL ZONE SUPPLY PLENUM,SizingPeriod: MOSCOW ANN CLG .4% CONDNS ENTH=>MDB HVAC Sizing Pass 1,3.7035458785E-004,1.7687994067E-004,Pass,Pass,9.6998417694E-004,4.2842874481E-004,Pass,Pass
Environment:Design Day Data,26.40,8.30,DefaultMultipliers,Wetbulb,21.20,{C},99465,150,1.6,0.00,No,No
Environment:Design Day Misc,202,1084.4,0.2082,0.1365,1.0,-6.23,20.6,ASHRAETau
Environment:WarmupDays,  3
 Warmup Convergence Information,THERMAL ZONE 1 HOT,SizingPeriod: MOSCOW ANN CLG .4% CONDNS WB=>MDB HVAC Sizing Pass 1,4.9157577244E-003,2.6690086780E-003,Pass,Pass,0.0000000000,0.0000000000,Pass,Pass
 Warmup Convergence Information,THERMAL ZONE 10 COLD,SizingPeriod: MOSCOW ANN CLG .4% CONDNS WB=>MDB HVAC Sizing Pass 1,3.1107203478E-005,7.6848723776E-005,Pass,Pass,4.0439638441E-004,2.4765196192E-004,Pass,Pass
 Warmup Convergence Information,THERMAL ZONE 11 HOT LAST,SizingPeriod: MOSCOW ANN CLG .4% CONDNS WB=>MDB HVAC Sizing Pass 1,5.1161790558E-003,3.3094079288E-003,Pass,Pass,0.0000000000,0.0000000000,Pass,Pass
 Warmup Convergence Information,THERMAL ZONE 2 COLD,SizingPeriod: MOSCOW ANN CLG .4% CONDNS WB=>MDB HVAC Sizing Pass 1,3.2822691297E-005,8.1073187829E-005,Pass,Pass,3.4394888585E-004,1.9210800852E-004,Pass,Pass
 Warmup Convergence Information,THERMAL ZONE 3 HOT,SizingPeriod: MOSCOW ANN CLG .4% CONDNS WB=>MDB HVAC Sizing Pass 1,1.6929272910E-003,9.7457862045E-004,Pass,Pass,0.0000000000,0.0000000000,Pass,Pass
 Warmup Convergence Information,THERMAL ZONE 4 COLD,SizingPeriod: MOSCOW ANN CLG .4% CONDNS WB=>MDB HVAC Sizing Pass 1,3.3981805933E-005,8.4144741464E-005,Pass,Pass,2.0856094282E-004,1.1940072490E-004,Pass,Pass
 Warmup Convergence Information,THERMAL ZONE 5 HOT,SizingPeriod: MOSCOW ANN CLG .4% CONDNS WB=>MDB HVAC Sizing Pass 1,1.6929667895E-003,9.7458071936E-004,Pass,Pass,0.0000000000,0.0000000000,Pass,Pass
 Warmup Convergence Information,THERMAL ZONE 6 COLD,SizingPeriod: MOSCOW ANN CLG .4% CONDNS WB=>MDB HVAC Sizing Pass 1,3.3982600182E-005,8.4132536354E-005,Pass,Pass,2.0856135585E-004,1.1939964880E-004,Pass,Pass
 Warmup Convergence Information,THERMAL ZONE 7 HOT,SizingPeriod: MOSCOW ANN CLG .4% CONDNS WB=>MDB HVAC Sizing Pass 1,1.6929679863E-003,9.7451234407E-004,Pass,Pass,0.0000000000,0.0000000000,Pass,Pass
 Warmup Convergence Information,THERMAL ZONE 8 COLD,SizingPeriod: MOSCOW ANN CLG .4% CONDNS WB=>MDB HVAC Sizing Pass 1,3.2555827965E-005,8.0515971783E-005,Pass,Pass,2.3034779458E-004,1.3138979475E-004,Pass,Pass
 Warmup Convergence Information,THERMAL ZONE 9 HOT,SizingPeriod: MOSCOW ANN CLG .4% CONDNS WB=>MDB HVAC Sizing Pass 1,1.5424876501E-003,8.7672734079E-004,Pass,Pass,0.0000000000,0.0000000000,Pass,Pass
 Warmup Convergence Information,THERMAL ZONE SUPPLY PLENUM,SizingPeriod: MOSCOW ANN CLG .4% CONDNS WB=>MDB HVAC Sizing Pass 1,3.7099673717E-004,1.7777132999E-004,Pass,Pass,9.7109258363E-004,4.2886842634E-004,Pass,Pass
Environment:Design Day Data,-23.10,0.00,DefaultMultipliers,Wetbulb,-23.10,{C},99465,290,1.4,0.00,No,No
Environment:Design Day Misc, 52,1214.6,0.1445,6.0579E-002,1.0,-13.80,-10.8,ASHRAEClearSky
Environment:WarmupDays,  3
 Warmup Convergence Information,THERMAL ZONE 1 HOT,SizingPeriod: MOSCOW ANN HTG 99.6% CONDNS DB HVAC Sizing Pass 1,3.2809273502E-007,2.4463471888E-007,Pass,Pass,0.0000000000,0.0000000000,Pass,Pass
 Warmup Convergence Information,THERMAL ZONE 10 COLD,SizingPeriod: MOSCOW ANN HTG 99.6% CONDNS DB HVAC Sizing Pass 1,1.0521028197E-009,2.1602200144E-015,Pass,Pass,3.2473872014E-008,2.4238230841E-008,Pass,Pass
 Warmup Convergence Information,THERMAL ZONE 11 HOT LAST,SizingPeriod: MOSCOW ANN HTG 99.6% CONDNS DB HVAC Sizing Pass 1,3.2814405699E-007,2.4467241575E-007,Pass,Pass,0.0000000000,0.0000000000,Pass,Pass
 Warmup Convergence Information,THERMAL ZONE 2 COLD,SizingPeriod: MOSCOW ANN HTG 99.6% CONDNS DB HVAC Sizing Pass 1,1.1082698907E-009,2.0509465252E-015,Pass,Pass,2.7204451959E-008,2.0303856221E-008,Pass,Pass
 Warmup Convergence Information,THERMAL ZONE 3 HOT,SizingPeriod: MOSCOW ANN HTG 99.6% CONDNS DB HVAC Sizing Pass 1,9.7882972068E-008,7.2934907713E-008,Pass,Pass,0.0000000000,0.0000000000,Pass,Pass
 Warmup Convergence Information,THERMAL ZONE 4 COLD,SizingPeriod: MOSCOW ANN HTG 99.6% CONDNS DB HVAC Sizing Pass 1,1.1648017069E-009,1.7724049839E-015,Pass,Pass,1.5848856134E-008,1.1832816912E-008,Pass,Pass
 Warmup Convergence Information,THERMAL ZONE 5 HOT,SizingPeriod: MOSCOW ANN HTG 99.6% CONDNS DB HVAC Sizing Pass 1,9.7883072729E-008,7.2935377742E-008,Pass,Pass,0.0000000000,0.0000000000,Pass,Pass
 Warmup Convergence Information,THERMAL ZONE 6 COLD,SizingPeriod: MOSCOW ANN HTG 99.6% CONDNS DB HVAC Sizing Pass 1,1.1654207673E-009,2.0088458841E-015,Pass,Pass,1.5848856431E-008,1.1832815595E-008,Pass,Pass
 Warmup Convergence Information,THERMAL ZONE 7 HOT,SizingPeriod: MOSCOW ANN HTG 99.6% CONDNS DB HVAC Sizing Pass 1,9.7882982075E-008,7.2934968109E-008,Pass,Pass,0.0000000000,0.0000000000,Pass,Pass
 Warmup Convergence Information,THERMAL ZONE 8 COLD,SizingPeriod: MOSCOW ANN HTG 99.6% CONDNS DB HVAC Sizing Pass 1,1.1177539191E-009,1.8908445005E-015,Pass,Pass,1.8949870871E-008,1.4149161333E-008,Pass,Pass
 Warmup Convergence Information,THERMAL ZONE 9 HOT,SizingPeriod: MOSCOW ANN HTG 99.6% CONDNS DB HVAC Sizing Pass 1,1.2095221843E-007,9.0192284346E-008,Pass,Pass,0.0000000000,0.0000000000,Pass,Pass
 Warmup Convergence Information,THERMAL ZONE SUPPLY PLENUM,SizingPeriod: MOSCOW ANN HTG 99.6% CONDNS DB HVAC Sizing Pass 1,5.5695193243E-007,6.3268361573E-007,Pass,Pass,5.5208028282E-007,5.1526407456E-007,Pass,Pass
Environment:Design Day Data,-8.20,0.00,DefaultMultipliers,Wetbulb,-8.20,{C},99465,290,8.0,0.00,No,No
Environment:Design Day Misc, 52,1214.6,0.1445,6.0579E-002,1.0,-13.80,-10.8,ASHRAEClearSky
Environment:WarmupDays,  3
 Warmup Convergence Information,THERMAL ZONE 1 HOT,SizingPeriod: MOSCOW ANN HTG WIND 99.6% CONDNS WS=>MCDB HVAC Sizing Pass 1,2.5275576710E-007,1.9123666567E-007,Pass,Pass,0.0000000000,0.0000000000,Pass,Pass
 Warmup Convergence Information,THERMAL ZONE 10 COLD,SizingPeriod: MOSCOW ANN HTG WIND 99.6% CONDNS WS=>MCDB HVAC Sizing Pass 1,1.0572448990E-009,2.0503053706E-015,Pass,Pass,2.4352007312E-008,1.8448407064E-008,Pass,Pass
 Warmup Convergence Information,THERMAL ZONE 11 HOT LAST,SizingPeriod: MOSCOW ANN HTG WIND 99.6% CONDNS WS=>MCDB HVAC Sizing Pass 1,2.5278280239E-007,1.9125655423E-007,Pass,Pass,0.0000000000,0.0000000000,Pass,Pass
 Warmup Convergence Information,THERMAL ZONE 2 COLD,SizingPeriod: MOSCOW ANN HTG WIND 99.6% CONDNS WS=>MCDB HVAC Sizing Pass 1,1.1122286795E-009,2.0965944449E-015,Pass,Pass,2.0512789596E-008,1.5538311156E-008,Pass,Pass
 Warmup Convergence Information,THERMAL ZONE 3 HOT,SizingPeriod: MOSCOW ANN HTG WIND 99.6% CONDNS WS=>MCDB HVAC Sizing Pass 1,7.8868803991E-008,5.9628962045E-008,Pass,Pass,0.0000000000,0.0000000000,Pass,Pass
 Warmup Convergence Information,THERMAL ZONE 4 COLD,SizingPeriod: MOSCOW ANN HTG WIND 99.6% CONDNS WS=>MCDB HVAC Sizing Pass 1,1.1662778595E-009,2.0477387449E-015,Pass,Pass,1.2077068453E-008,9.1524678120E-009,Pass,Pass
 Warmup Convergence Information,THERMAL ZONE 5 HOT,SizingPeriod: MOSCOW ANN HTG WIND 99.6% CONDNS WS=>MCDB HVAC Sizing Pass 1,7.8868882506E-008,5.9629420548E-008,Pass,Pass,0.0000000000,0.0000000000,Pass,Pass
 Warmup Convergence Information,THERMAL ZONE 6 COLD,SizingPeriod: MOSCOW ANN HTG WIND 99.6% CONDNS WS=>MCDB HVAC Sizing Pass 1,1.1668647974E-009,1.7158683518E-015,Pass,Pass,1.2077068726E-008,9.1524667757E-009,Pass,Pass
 Warmup Convergence Information,THERMAL ZONE 7 HOT,SizingPeriod: MOSCOW ANN HTG WIND 99.6% CONDNS WS=>MCDB HVAC Sizing Pass 1,7.8868812163E-008,5.9629011467E-008,Pass,Pass,0.0000000000,0.0000000000,Pass,Pass
 Warmup Convergence Information,THERMAL ZONE 8 COLD,SizingPeriod: MOSCOW ANN HTG WIND 99.6% CONDNS WS=>MCDB HVAC Sizing Pass 1,1.1199203935E-009,1.8761856682E-015,Pass,Pass,1.4346779902E-008,1.0873976961E-008,Pass,Pass
 Warmup Convergence Information,THERMAL ZONE 9 HOT,SizingPeriod: MOSCOW ANN HTG WIND 99.6% CONDNS WS=>MCDB HVAC Sizing Pass 1,9.4609697291E-008,7.1600960456E-008,Pass,Pass,0.0000000000,0.0000000000,Pass,Pass
 Warmup Convergence Information,THERMAL ZONE SUPPLY PLENUM,SizingPeriod: MOSCOW ANN HTG WIND 99.6% CONDNS WS=>MCDB HVAC Sizing Pass 1,4.3782975054E-007,5.8050901963E-007,Pass,Pass,3.9025136376E-007,3.7970462952E-007,Pass,Pass
Environment:Design Day Data,-22.70,0.00,DefaultMultipliers,Dewpoint,-25.80,{C},99465,290,1.4,0.00,No,No
Environment:Design Day Misc, 52,1214.6,0.1445,6.0579E-002,1.0,-13.80,-10.8,ASHRAEClearSky
Environment:WarmupDays,  3
 Warmup Convergence Information,THERMAL ZONE 1 HOT,SizingPeriod: MOSCOW ANN HUM_N 99.6% CONDNS DP=>MCDB HVAC Sizing Pass 1,3.2672521023E-007,2.4369758240E-007,Pass,Pass,0.0000000000,0.0000000000,Pass,Pass
 Warmup Convergence Information,THERMAL ZONE 10 COLD,SizingPeriod: MOSCOW ANN HUM_N 99.6% CONDNS DP=>MCDB HVAC Sizing Pass 1,1.0521692554E-009,1.9450003333E-015,Pass,Pass,3.2324869978E-008,2.4135258849E-008,Pass,Pass
 Warmup Convergence Information,THERMAL ZONE 11 HOT LAST,SizingPeriod: MOSCOW ANN HUM_N 99.6% CONDNS DP=>MCDB HVAC Sizing Pass 1,3.2676985586E-007,2.4373032412E-007,Pass,Pass,0.0000000000,0.0000000000,Pass,Pass
 Warmup Convergence Information,THERMAL ZONE 2 COLD,SizingPeriod: MOSCOW ANN HUM_N 99.6% CONDNS DP=>MCDB HVAC Sizing Pass 1,1.1083153062E-009,1.9707422942E-015,Pass,Pass,2.7093933268E-008,2.0228258752E-008,Pass,Pass
 Warmup Convergence Information,THERMAL ZONE 3 HOT,SizingPeriod: MOSCOW ANN HUM_N 99.6% CONDNS DP=>MCDB HVAC Sizing Pass 1,9.7845742975E-008,7.2931860301E-008,Pass,Pass,0.0000000000,0.0000000000,Pass,Pass
 Warmup Convergence Information,THERMAL ZONE 4 COLD,SizingPeriod: MOSCOW ANN HUM_N 99.6% CONDNS DP=>MCDB HVAC Sizing Pass 1,1.1648098486E-009,2.1347099325E-015,Pass,Pass,1.5801217901E-008,1.1801258168E-008,Pass,Pass
 Warmup Convergence Information,THERMAL ZONE 5 HOT,SizingPeriod: MOSCOW ANN HUM_N 99.6% CONDNS DP=>MCDB HVAC Sizing Pass 1,9.7845843368E-008,7.2932329921E-008,Pass,Pass,0.0000000000,0.0000000000,Pass,Pass
 Warmup Convergence Information,THERMAL ZONE 6 COLD,SizingPeriod: MOSCOW ANN HUM_N 99.6% CONDNS DP=>MCDB HVAC Sizing Pass 1,1.1654300636E-009,1.7998857697E-015,Pass,Pass,1.5801218210E-008,1.1801256867E-008,Pass,Pass
 Warmup Convergence Information,THERMAL ZONE 7 HOT,SizingPeriod: MOSCOW ANN HUM_N 99.6% CONDNS DP=>MCDB HVAC Sizing Pass 1,9.7845752981E-008,7.2931920453E-008,Pass,Pass,0.0000000000,0.0000000000,Pass,Pass
 Warmup Convergence Information,THERMAL ZONE 8 COLD,SizingPeriod: MOSCOW ANN HUM_N 99.6% CONDNS DP=>MCDB HVAC Sizing Pass 1,1.1177752353E-009,2.1510712367E-015,Pass,Pass,1.8877772417E-008,1.4100140899E-008,Pass,Pass
 Warmup Convergence Information,THERMAL ZONE 9 HOT,SizingPeriod: MOSCOW ANN HUM_N 99.6% CONDNS DP=>MCDB HVAC Sizing Pass 1,1.2048339517E-007,8.9873249134E-008,Pass,Pass,0.0000000000,0.0000000000,Pass,Pass
 Warmup Convergence Information,THERMAL ZONE SUPPLY PLENUM,SizingPeriod: MOSCOW ANN HUM_N 99.6% CONDNS DP=>MCDB HVAC Sizing Pass 1,5.5465639859E-007,6.3029243873E-007,Pass,Pass,5.4928482948E-007,5.1281678736E-007,Pass,Pass
Environment:Design Day Data,31.20,10.60,DefaultMultipliers,Wetbulb,23.10,{C},96634,200,6.7,0.00,No,No
Environment:Design Day Misc,202,1084.4,0.2082,0.1365,1.0,-6.23,20.6,ASHRAETau
Environment:WarmupDays,  3
 Warmup Convergence Information,THERMAL ZONE 1 HOT,SizingPeriod: ROCHESTER INTERNATIONAL ARPT ANN CLG .4% CONDNS DB=>MWB HVAC Sizing Pass 1,4.6948692774E-003,2.4941361675E-003,Pass,Pass,0.0000000000,0.0000000000,Pass,Pass
 Warmup Convergence Information,THERMAL ZONE 10 COLD,SizingPeriod: ROCHESTER INTERNATIONAL ARPT ANN CLG .4% CONDNS DB=>MWB HVAC Sizing Pass 1,3.9283041000E-005,8.8005575638E-005,Pass,Pass,3.7098972278E-004,2.2320998816E-004,Pass,Pass
 Warmup Convergence Information,THERMAL ZONE 11 HOT LAST,SizingPeriod: ROCHESTER INTERNATIONAL ARPT ANN CLG .4% CONDNS DB=>MWB HVAC Sizing Pass 1,4.9018287203E-003,3.1154625728E-003,Pass,Pass,0.0000000000,0.0000000000,Pass,Pass
 Warmup Convergence Information,THERMAL ZONE 2 COLD,SizingPeriod: ROCHESTER INTERNATIONAL ARPT ANN CLG .4% CONDNS DB=>MWB HVAC Sizing Pass 1,4.1408627548E-005,9.2850802575E-005,Pass,Pass,3.1562257341E-004,1.7021743144E-004,Pass,Pass
 Warmup Convergence Information,THERMAL ZONE 3 HOT,SizingPeriod: ROCHESTER INTERNATIONAL ARPT ANN CLG .4% CONDNS DB=>MWB HVAC Sizing Pass 1,1.5580434769E-003,8.7296040363E-004,Pass,Pass,0.0000000000,0.0000000000,Pass,Pass
 Warmup Convergence Information,THERMAL ZONE 4 COLD,SizingPeriod: ROCHESTER INTERNATIONAL ARPT ANN CLG .4% CONDNS DB=>MWB HVAC Sizing Pass 1,4.2855132571E-005,9.6258069165E-005,Pass,Pass,1.8793964804E-004,1.0396042663E-004,Pass,Pass
 Warmup Convergence Information,THERMAL ZONE 5 HOT,SizingPeriod: ROCHESTER INTERNATIONAL ARPT ANN CLG .4% CONDNS DB=>MWB HVAC Sizing Pass 1,1.5580488458E-003,8.7300695646E-004,Pass,Pass,0.0000000000,0.0000000000,Pass,Pass
 Warmup Convergence Information,THERMAL ZONE 6 COLD,SizingPeriod: ROCHESTER INTERNATIONAL ARPT ANN CLG .4% CONDNS DB=>MWB HVAC Sizing Pass 1,4.2850674024E-005,9.6242582735E-005,Pass,Pass,1.8793954576E-004,1.0396029304E-004,Pass,Pass
 Warmup Convergence Information,THERMAL ZONE 7 HOT,SizingPeriod: ROCHESTER INTERNATIONAL ARPT ANN CLG .4% CONDNS DB=>MWB HVAC Sizing Pass 1,1.5580437112E-003,8.7295171418E-004,Pass,Pass,0.0000000000,0.0000000000,Pass,Pass
 Warmup Convergence Information,THERMAL ZONE 8 COLD,SizingPeriod: ROCHESTER INTERNATIONAL ARPT ANN CLG .4% CONDNS DB=>MWB HVAC Sizing Pass 1,4.1072542334E-005,9.2109289987E-005,Pass,Pass,2.0845437941E-004,1.1470494314E-004,Pass,Pass
 Warmup Convergence Information,THERMAL ZONE 9 HOT,SizingPeriod: ROCHESTER INTERNATIONAL ARPT ANN CLG .4% CONDNS DB=>MWB HVAC Sizing Pass 1,1.4432574617E-003,7.9219892465E-004,Pass,Pass,0.0000000000,0.0000000000,Pass,Pass
 Warmup Convergence Information,THERMAL ZONE SUPPLY PLENUM,SizingPeriod: ROCHESTER INTERNATIONAL ARPT ANN CLG .4% CONDNS DB=>MWB HVAC Sizing Pass 1,3.5529961334E-004,1.7415987076E-004,Pass,Pass,9.2196083906E-004,4.0581527859E-004,Pass,Pass
Environment:Design Day Data,-26.20,0.00,DefaultMultipliers,Wetbulb,-26.20,{C},96634,310,5.7,0.00,No,No
Environment:Design Day Misc, 21,1229.0,0.1415,5.7310E-002,1.0,-11.15,-20.1,ASHRAEClearSky
Environment:WarmupDays,  3
 Warmup Convergence Information,THERMAL ZONE 1 HOT,SizingPeriod: ROCHESTER INTERNATIONAL ARPT ANN HTG 99.6% CONDNS DB HVAC Sizing Pass 1,3.4824093701E-007,2.5802094121E-007,Pass,Pass,0.0000000000,0.0000000000,Pass,Pass
 Warmup Convergence Information,THERMAL ZONE 10 COLD,SizingPeriod: ROCHESTER INTERNATIONAL ARPT ANN HTG 99.6% CONDNS DB HVAC Sizing Pass 1,1.0915216582E-009,1.9957131706E-015,Pass,Pass,3.3914233634E-008,2.5153604324E-008,Pass,Pass
 Warmup Convergence Information,THERMAL ZONE 11 HOT LAST,SizingPeriod: ROCHESTER INTERNATIONAL ARPT ANN HTG 99.6% CONDNS DB HVAC Sizing Pass 1,3.4832293861E-007,2.5808114540E-007,Pass,Pass,0.0000000000,0.0000000000,Pass,Pass
 Warmup Convergence Information,THERMAL ZONE 2 COLD,SizingPeriod: ROCHESTER INTERNATIONAL ARPT ANN HTG 99.6% CONDNS DB HVAC Sizing Pass 1,1.1490241647E-009,1.8827147954E-015,Pass,Pass,2.8099806309E-008,2.0840582116E-008,Pass,Pass
 Warmup Convergence Information,THERMAL ZONE 3 HOT,SizingPeriod: ROCHESTER INTERNATIONAL ARPT ANN HTG 99.6% CONDNS DB HVAC Sizing Pass 1,9.5141690289E-008,7.0449888468E-008,Pass,Pass,0.0000000000,0.0000000000,Pass,Pass
 Warmup Convergence Information,THERMAL ZONE 4 COLD,SizingPeriod: ROCHESTER INTERNATIONAL ARPT ANN HTG 99.6% CONDNS DB HVAC Sizing Pass 1,1.2072922514E-009,1.9884532077E-015,Pass,Pass,1.6042224346E-008,1.1902765333E-008,Pass,Pass
 Warmup Convergence Information,THERMAL ZONE 5 HOT,SizingPeriod: ROCHESTER INTERNATIONAL ARPT ANN HTG 99.6% CONDNS DB HVAC Sizing Pass 1,9.5141809571E-008,7.0450398241E-008,Pass,Pass,0.0000000000,0.0000000000,Pass,Pass
 Warmup Convergence Information,THERMAL ZONE 6 COLD,SizingPeriod: ROCHESTER INTERNATIONAL ARPT ANN HTG 99.6% CONDNS DB HVAC Sizing Pass 1,1.2079235390E-009,1.7910986427E-015,Pass,Pass,1.6042224727E-008,1.1902763955E-008,Pass,Pass
 Warmup Convergence Information,THERMAL ZONE 7 HOT,SizingPeriod: ROCHESTER INTERNATIONAL ARPT ANN HTG 99.6% CONDNS DB HVAC Sizing Pass 1,9.5141702842E-008,7.0449957547E-008,Pass,Pass,0.0000000000,0.0000000000,Pass,Pass
 Warmup Convergence Information,THERMAL ZONE 8 COLD,SizingPeriod: ROCHESTER INTERNATIONAL ARPT ANN HTG 99.6% CONDNS DB HVAC Sizing Pass 1,1.1593126755E-009,1.9456761891E-015,Pass,Pass,1.9514716148E-008,1.4479408801E-008,Pass,Pass
 Warmup Convergence Information,THERMAL ZONE 9 HOT,SizingPeriod: ROCHESTER INTERNATIONAL ARPT ANN HTG 99.6% CONDNS DB HVAC Sizing Pass 1,1.2749734137E-007,9.4467524362E-008,Pass,Pass,0.0000000000,0.0000000000,Pass,Pass
 Warmup Convergence Information,THERMAL ZONE SUPPLY PLENUM,SizingPeriod: ROCHESTER INTERNATIONAL ARPT ANN HTG 99.6% CONDNS DB HVAC Sizing Pass 1,5.6256167727E-007,6.2388956495E-007,Pass,Pass,5.6787214043E-007,5.1943650959E-007,Pass,Pass
! <Plant Coincident Sizing Algorithm>,Plant Loop Name,Sizing Pass {#},Measured Mass Flow{kg/s},Measured Demand {W},Demand Calculated Mass Flow{kg/s},Sizes Changed {Yes/No},Previous Volume Flow Rate {m3/s},New Volume Flow Rate {m3/s},Demand Check Applied {Yes/No},Sizing Factor {},Normalized Change {},Specific Heat{J/kg-K},Density {kg/m3}
Plant Coincident Sizing Algorithm,CONDENSER WATER LOOP,1,238.9952715,716248.90,30.7115180,Yes,5.975491E-002,0.307140,No,1.2850,4.140000,4197.9300,999.8980
Environment:Design Day Data,28.40,8.30,DefaultMultipliers,Wetbulb,20.10,{C},99465,150,1.6,0.00,No,No
Environment:Design Day Misc,202,1084.4,0.2082,0.1365,1.0,-6.23,20.6,ASHRAETau
 Component Sizing Information, PlantLoop, CHILLED WATER LOOP, Maximum Loop Flow Rate [m3/s], 2.74629E-002
 Component Sizing Information, PlantLoop, CHILLED WATER LOOP, Plant Loop Volume [m3], 3.29555
 Component Sizing Information, PlantLoop, CONDENSER WATER LOOP, Maximum Loop Flow Rate [m3/s], 1.22856
 Component Sizing Information, PlantLoop, CONDENSER WATER LOOP, Plant Loop Volume [m3], 147.42732
 Component Sizing Information, Pump:VariableSpeed, CHILLED WATER LOOP SECONDARY PUMP, Design Flow Rate [m3/s], 2.74629E-002
 Component Sizing Information, Pump:VariableSpeed, CHILLED WATER LOOP SECONDARY PUMP, Design Power Consumption [W], 5092.33595
 Component Sizing Information, HeatExchanger:FluidToFluid, INTEGRATED WATERSIDE ECONOMIZER HEAT EXCHANGER, Loop Supply Side Design Fluid Flow Rate [m3/s], 2.74629E-002
 Component Sizing Information, HeatExchanger:FluidToFluid, INTEGRATED WATERSIDE ECONOMIZER HEAT EXCHANGER, Loop Demand Side Design Fluid Flow Rate [m3/s], 2.74629E-002
 Component Sizing Information, HeatExchanger:FluidToFluid, INTEGRATED WATERSIDE ECONOMIZER HEAT EXCHANGER, Heat Exchanger U-Factor Times Area Value [W/C], 37679.07501
 Component Sizing Information, HeatExchanger:FluidToFluid, INTEGRATED WATERSIDE ECONOMIZER HEAT EXCHANGER, Loop-to-loop Temperature Difference Used to Size Heat Exchanger U-Factor Times Area Value [C], 17.16667
 Component Sizing Information, Chiller:Electric:EIR, 90.1-2013 WATERCOOLED  CENTRIFUGAL CHILLER 0 1231TONS 0.6KW/TON, Design Size Reference Chilled Water Flow Rate [m3/s], 2.74629E-002
 Component Sizing Information, Chiller:Electric:EIR, 90.1-2013 WATERCOOLED  CENTRIFUGAL CHILLER 0 1231TONS 0.6KW/TON, Design Size Reference Capacity [W], 646824.12108
 Component Sizing Information, Chiller:Electric:EIR, 90.1-2013 WATERCOOLED  CENTRIFUGAL CHILLER 0 1231TONS 0.6KW/TON, Design Size Reference Condenser Fluid Flow Rate [m3/s], 3.22920E-002
! <Chiller Standard Rating Information>, Component Type, Component Name, IPLV in SI Units {W/W}, IPLV in IP Units {Btu/W-h}
 Chiller Standard Rating Information, Chiller:Electric:EIR, 90.1-2013 WATERCOOLED  CENTRIFUGAL CHILLER 0 1231TONS 0.6KW/TON, 7.43, 25.21
 Component Sizing Information, Pump:ConstantSpeed, CHILLED WATER LOOP PRIMARY PUMP, Design Flow Rate [m3/s], 2.74629E-002
 Component Sizing Information, Pump:ConstantSpeed, CHILLED WATER LOOP PRIMARY PUMP, Design Power Consumption [W], 1661.70963
 Component Sizing Information, CoolingTower:SingleSpeed, CENTRIFUGAL FAN CYCLING OPEN COOLING TOWER 40.2 GPM/HP, Design Water Flow Rate [m3/s], 1.22856
 Component Sizing Information, CoolingTower:SingleSpeed, CENTRIFUGAL FAN CYCLING OPEN COOLING TOWER 40.2 GPM/HP, Fan Power at Design Air Flow Rate [W], 299525.60831
 Component Sizing Information, CoolingTower:SingleSpeed, CENTRIFUGAL FAN CYCLING OPEN COOLING TOWER 40.2 GPM/HP, Design Air Flow Rate [m3/s], 802.96577
 Component Sizing Information, CoolingTower:SingleSpeed, CENTRIFUGAL FAN CYCLING OPEN COOLING TOWER 40.2 GPM/HP, U-Factor Times Area Value at Design Air Flow Rate [W/C], 1726859.30370
 Component Sizing Information, CoolingTower:SingleSpeed, CENTRIFUGAL FAN CYCLING OPEN COOLING TOWER 40.2 GPM/HP, Free Convection Regime Air Flow Rate [m3/s], 80.29658
 Component Sizing Information, CoolingTower:SingleSpeed, CENTRIFUGAL FAN CYCLING OPEN COOLING TOWER 40.2 GPM/HP, Free Convection U-Factor Times Area Value [W/K], 172685.93037
 Component Sizing Information, Pump:ConstantSpeed, CONDENSER WATER LOOP CONSTANT PUMP, Design Flow Rate [m3/s], 1.22856
 Component Sizing Information, Pump:ConstantSpeed, CONDENSER WATER LOOP CONSTANT PUMP, Design Power Consumption [W], 245270.76032
Environment:Design Day Data,24.00,8.30,DefaultMultipliers,Dewpoint,19.30,{C},99465,150,1.6,0.00,No,No
Environment:Design Day Misc,202,1084.4,0.2082,0.1365,1.0,-6.23,20.6,ASHRAETau
Environment:Design Day Data,26.60,8.30,DefaultMultipliers,Enthalpy,62300.00,{J/kgDryAir},99465,150,1.6,0.00,No,No
Environment:Design Day Misc,202,1084.4,0.2082,0.1365,1.0,-6.23,20.6,ASHRAETau
Environment:Design Day Data,26.40,8.30,DefaultMultipliers,Wetbulb,21.20,{C},99465,150,1.6,0.00,No,No
Environment:Design Day Misc,202,1084.4,0.2082,0.1365,1.0,-6.23,20.6,ASHRAETau
Environment:Design Day Data,-23.10,0.00,DefaultMultipliers,Wetbulb,-23.10,{C},99465,290,1.4,0.00,No,No
Environment:Design Day Misc, 52,1214.6,0.1445,6.0579E-002,1.0,-13.80,-10.8,ASHRAEClearSky
Environment:Design Day Data,-8.20,0.00,DefaultMultipliers,Wetbulb,-8.20,{C},99465,290,8.0,0.00,No,No
Environment:Design Day Misc, 52,1214.6,0.1445,6.0579E-002,1.0,-13.80,-10.8,ASHRAEClearSky
Environment:Design Day Data,-22.70,0.00,DefaultMultipliers,Dewpoint,-25.80,{C},99465,290,1.4,0.00,No,No
Environment:Design Day Misc, 52,1214.6,0.1445,6.0579E-002,1.0,-13.80,-10.8,ASHRAEClearSky
Environment:Design Day Data,31.20,10.60,DefaultMultipliers,Wetbulb,23.10,{C},96634,200,6.7,0.00,No,No
Environment:Design Day Misc,202,1084.4,0.2082,0.1365,1.0,-6.23,20.6,ASHRAETau
Environment:Design Day Data,-26.20,0.00,DefaultMultipliers,Wetbulb,-26.20,{C},96634,310,5.7,0.00,No,No
Environment:Design Day Misc, 21,1229.0,0.1415,5.7310E-002,1.0,-11.15,-20.1,ASHRAEClearSky
Environment,RUN PERIOD 1,WeatherFileRunPeriod,07/01/2006,07/30/2006,Saturday,30,Use RunPeriod Specified Day,No,No,No,Yes,Yes,Clark and Allen
Environment:Design Day Data,28.40,8.30,DefaultMultipliers,Wetbulb,20.10,{C},99465,150,1.6,0.00,No,No
Environment:Design Day Misc,202,1084.4,0.2082,0.1365,1.0,-6.23,20.6,ASHRAETau
Environment:Design Day Data,24.00,8.30,DefaultMultipliers,Dewpoint,19.30,{C},99465,150,1.6,0.00,No,No
Environment:Design Day Misc,202,1084.4,0.2082,0.1365,1.0,-6.23,20.6,ASHRAETau
Environment:Design Day Data,26.60,8.30,DefaultMultipliers,Enthalpy,62300.00,{J/kgDryAir},99465,150,1.6,0.00,No,No
Environment:Design Day Misc,202,1084.4,0.2082,0.1365,1.0,-6.23,20.6,ASHRAETau
Environment:Design Day Data,26.40,8.30,DefaultMultipliers,Wetbulb,21.20,{C},99465,150,1.6,0.00,No,No
Environment:Design Day Misc,202,1084.4,0.2082,0.1365,1.0,-6.23,20.6,ASHRAETau
Environment:Design Day Data,-23.10,0.00,DefaultMultipliers,Wetbulb,-23.10,{C},99465,290,1.4,0.00,No,No
Environment:Design Day Misc, 52,1214.6,0.1445,6.0579E-002,1.0,-13.80,-10.8,ASHRAEClearSky
Environment:Design Day Data,-8.20,0.00,DefaultMultipliers,Wetbulb,-8.20,{C},99465,290,8.0,0.00,No,No
Environment:Design Day Misc, 52,1214.6,0.1445,6.0579E-002,1.0,-13.80,-10.8,ASHRAEClearSky
Environment:Design Day Data,-22.70,0.00,DefaultMultipliers,Dewpoint,-25.80,{C},99465,290,1.4,0.00,No,No
Environment:Design Day Misc, 52,1214.6,0.1445,6.0579E-002,1.0,-13.80,-10.8,ASHRAEClearSky
Environment:Design Day Data,31.20,10.60,DefaultMultipliers,Wetbulb,23.10,{C},96634,200,6.7,0.00,No,No
Environment:Design Day Misc,202,1084.4,0.2082,0.1365,1.0,-6.23,20.6,ASHRAETau
Environment:Design Day Data,-26.20,0.00,DefaultMultipliers,Wetbulb,-26.20,{C},96634,310,5.7,0.00,No,No
Environment:Design Day Misc, 21,1229.0,0.1415,5.7310E-002,1.0,-11.15,-20.1,ASHRAEClearSky
Environment,RUN PERIOD 1,WeatherFileRunPeriod,07/01/2006,07/30/2006,Saturday,30,Use RunPeriod Specified Day,No,No,No,Yes,Yes,Clark and Allen
Environment:Daylight Saving,Yes,InputFile,03/12,11/05
Environment:Design Day Data,28.40,8.30,DefaultMultipliers,Wetbulb,20.10,{C},99465,150,1.6,0.00,No,No
Environment:Design Day Misc,202,1084.4,0.2082,0.1365,1.0,-6.23,20.6,ASHRAETau
Environment:WarmupDays,  3
 Warmup Convergence Information,THERMAL ZONE 1 HOT,SizingPeriod: MOSCOW ANN CLG .4% CONDNS DB=>MWB HVAC Sizing Pass 2,7.8188461552E-003,1.8525119875E-002,Pass,Pass,0.0000000000,0.0000000000,Pass,Pass
 Warmup Convergence Information,THERMAL ZONE 10 COLD,SizingPeriod: MOSCOW ANN CLG .4% CONDNS DB=>MWB HVAC Sizing Pass 2,5.0510897830E-003,2.4482777182E-002,Pass,Pass,8.6732050350E-004,3.3435371168E-003,Pass,Pass
 Warmup Convergence Information,THERMAL ZONE 11 HOT LAST,SizingPeriod: MOSCOW ANN CLG .4% CONDNS DB=>MWB HVAC Sizing Pass 2,7.7584716285E-003,1.7430645044E-002,Pass,Pass,0.0000000000,0.0000000000,Pass,Pass
 Warmup Convergence Information,THERMAL ZONE 2 COLD,SizingPeriod: MOSCOW ANN CLG .4% CONDNS DB=>MWB HVAC Sizing Pass 2,5.5271895072E-003,2.5941458516E-002,Pass,Pass,7.9278967959E-004,3.1458222254E-003,Pass,Pass
 Warmup Convergence Information,THERMAL ZONE 3 HOT,SizingPeriod: MOSCOW ANN CLG .4% CONDNS DB=>MWB HVAC Sizing Pass 2,5.6615342206E-003,2.2952147941E-002,Pass,Pass,0.0000000000,0.0000000000,Pass,Pass
 Warmup Convergence Information,THERMAL ZONE 4 COLD,SizingPeriod: MOSCOW ANN CLG .4% CONDNS DB=>MWB HVAC Sizing Pass 2,6.5398604993E-003,2.9221373646E-002,Pass,Pass,6.8544972579E-004,3.0549366937E-003,Pass,Pass
 Warmup Convergence Information,THERMAL ZONE 5 HOT,SizingPeriod: MOSCOW ANN CLG .4% CONDNS DB=>MWB HVAC Sizing Pass 2,6.1353293509E-003,2.4435412761E-002,Pass,Pass,0.0000000000,0.0000000000,Pass,Pass
 Warmup Convergence Information,THERMAL ZONE 6 COLD,SizingPeriod: MOSCOW ANN CLG .4% CONDNS DB=>MWB HVAC Sizing Pass 2,6.5756103583E-003,2.9406082006E-002,Pass,Pass,6.8064201687E-004,3.0116961961E-003,Pass,Pass
 Warmup Convergence Information,THERMAL ZONE 7 HOT,SizingPeriod: MOSCOW ANN CLG .4% CONDNS DB=>MWB HVAC Sizing Pass 2,6.0120733978E-003,2.3939059785E-002,Pass,Pass,0.0000000000,0.0000000000,Pass,Pass
 Warmup Convergence Information,THERMAL ZONE 8 COLD,SizingPeriod: MOSCOW ANN CLG .4% CONDNS DB=>MWB HVAC Sizing Pass 2,6.2278417148E-003,2.8386730556E-002,Pass,Pass,7.2889501960E-004,3.2559649126E-003,Pass,Pass
 Warmup Convergence Information,THERMAL ZONE 9 HOT,SizingPeriod: MOSCOW ANN CLG .4% CONDNS DB=>MWB HVAC Sizing Pass 2,5.2458166772E-003,2.1731600768E-002,Pass,Pass,0.0000000000,0.0000000000,Pass,Pass
 Warmup Convergence Information,THERMAL ZONE SUPPLY PLENUM,SizingPeriod: MOSCOW ANN CLG .4% CONDNS DB=>MWB HVAC Sizing Pass 2,6.8509694718E-002,0.3220315958,Pass,Pass,1.5051865234E-002,4.9165112552E-002,Pass,Pass
Environment:Design Day Data,24.00,8.30,DefaultMultipliers,Dewpoint,19.30,{C},99465,150,1.6,0.00,No,No
Environment:Design Day Misc,202,1084.4,0.2082,0.1365,1.0,-6.23,20.6,ASHRAETau
Environment:WarmupDays,  3
 Warmup Convergence Information,THERMAL ZONE 1 HOT,SizingPeriod: MOSCOW ANN CLG .4% CONDNS DP=>MDB HVAC Sizing Pass 2,4.8276391165E-003,2.8299630352E-003,Pass,Pass,0.0000000000,0.0000000000,Pass,Pass
 Warmup Convergence Information,THERMAL ZONE 10 COLD,SizingPeriod: MOSCOW ANN CLG .4% CONDNS DP=>MDB HVAC Sizing Pass 2,2.4644069043E-005,6.7193753894E-005,Pass,Pass,4.0137449562E-004,2.7814384445E-004,Pass,Pass
 Warmup Convergence Information,THERMAL ZONE 11 HOT LAST,SizingPeriod: MOSCOW ANN CLG .4% CONDNS DP=>MDB HVAC Sizing Pass 2,5.1202614681E-003,3.4606703448E-003,Pass,Pass,0.0000000000,0.0000000000,Pass,Pass
 Warmup Convergence Information,THERMAL ZONE 2 COLD,SizingPeriod: MOSCOW ANN CLG .4% CONDNS DP=>MDB HVAC Sizing Pass 2,2.5969937580E-005,7.0970885681E-005,Pass,Pass,3.3828725539E-004,2.1656060387E-004,Pass,Pass
 Warmup Convergence Information,THERMAL ZONE 3 HOT,SizingPeriod: MOSCOW ANN CLG .4% CONDNS DP=>MDB HVAC Sizing Pass 2,1.6869383574E-003,1.0315566286E-003,Pass,Pass,0.0000000000,0.0000000000,Pass,Pass
 Warmup Convergence Information,THERMAL ZONE 4 COLD,SizingPeriod: MOSCOW ANN CLG .4% CONDNS DP=>MDB HVAC Sizing Pass 2,2.7023927391E-005,7.3877576691E-005,Pass,Pass,2.0665512967E-004,1.3106731599E-004,Pass,Pass
 Warmup Convergence Information,THERMAL ZONE 5 HOT,SizingPeriod: MOSCOW ANN CLG .4% CONDNS DP=>MDB HVAC Sizing Pass 2,1.6869050678E-003,1.0316600259E-003,Pass,Pass,0.0000000000,0.0000000000,Pass,Pass
 Warmup Convergence Information,THERMAL ZONE 6 COLD,SizingPeriod: MOSCOW ANN CLG .4% CONDNS DP=>MDB HVAC Sizing Pass 2,2.7019044260E-005,7.3871370623E-005,Pass,Pass,2.0665534019E-004,1.3106707194E-004,Pass,Pass
 Warmup Convergence Information,THERMAL ZONE 7 HOT,SizingPeriod: MOSCOW ANN CLG .4% CONDNS DP=>MDB HVAC Sizing Pass 2,1.6869319700E-003,1.0316003545E-003,Pass,Pass,0.0000000000,0.0000000000,Pass,Pass
 Warmup Convergence Information,THERMAL ZONE 8 COLD,SizingPeriod: MOSCOW ANN CLG .4% CONDNS DP=>MDB HVAC Sizing Pass 2,2.5903941637E-005,7.0615824175E-005,Pass,Pass,2.2794823525E-004,1.4442508636E-004,Pass,Pass
 Warmup Convergence Information,THERMAL ZONE 9 HOT,SizingPeriod: MOSCOW ANN CLG .4% CONDNS DP=>MDB HVAC Sizing Pass 2,1.5289280092E-003,9.3510960959E-004,Pass,Pass,0.0000000000,0.0000000000,Pass,Pass
 Warmup Convergence Information,THERMAL ZONE SUPPLY PLENUM,SizingPeriod: MOSCOW ANN CLG .4% CONDNS DP=>MDB HVAC Sizing Pass 2,4.7961996622E-002,0.1623301931,Pass,Pass,1.0626699293E-002,2.9493775647E-002,Pass,Pass
Environment:Design Day Data,26.60,8.30,DefaultMultipliers,Enthalpy,62300.00,{J/kgDryAir},99465,150,1.6,0.00,No,No
Environment:Design Day Misc,202,1084.4,0.2082,0.1365,1.0,-6.23,20.6,ASHRAETau
Environment:WarmupDays,  3
 Warmup Convergence Information,THERMAL ZONE 1 HOT,SizingPeriod: MOSCOW ANN CLG .4% CONDNS ENTH=>MDB HVAC Sizing Pass 2,4.9114366359E-003,2.6778799761E-003,Pass,Pass,0.0000000000,0.0000000000,Pass,Pass
 Warmup Convergence Information,THERMAL ZONE 10 COLD,SizingPeriod: MOSCOW ANN CLG .4% CONDNS ENTH=>MDB HVAC Sizing Pass 2,3.5354768004E-005,8.4059781268E-005,Pass,Pass,4.0335966172E-004,2.4890344013E-004,Pass,Pass
 Warmup Convergence Information,THERMAL ZONE 11 HOT LAST,SizingPeriod: MOSCOW ANN CLG .4% CONDNS ENTH=>MDB HVAC Sizing Pass 2,5.1119344363E-003,3.3130019288E-003,Pass,Pass,0.0000000000,0.0000000000,Pass,Pass
 Warmup Convergence Information,THERMAL ZONE 2 COLD,SizingPeriod: MOSCOW ANN CLG .4% CONDNS ENTH=>MDB HVAC Sizing Pass 2,3.7310247088E-005,8.8748881867E-005,Pass,Pass,3.4377969119E-004,1.9237698098E-004,Pass,Pass
 Warmup Convergence Information,THERMAL ZONE 3 HOT,SizingPeriod: MOSCOW ANN CLG .4% CONDNS ENTH=>MDB HVAC Sizing Pass 2,1.6947605694E-003,9.7605302290E-004,Pass,Pass,0.0000000000,0.0000000000,Pass,Pass
 Warmup Convergence Information,THERMAL ZONE 4 COLD,SizingPeriod: MOSCOW ANN CLG .4% CONDNS ENTH=>MDB HVAC Sizing Pass 2,3.8657309021E-005,9.2122688503E-005,Pass,Pass,2.0857112063E-004,1.1955308853E-004,Pass,Pass
 Warmup Convergence Information,THERMAL ZONE 5 HOT,SizingPeriod: MOSCOW ANN CLG .4% CONDNS ENTH=>MDB HVAC Sizing Pass 2,1.6947953046E-003,9.7606518945E-004,Pass,Pass,0.0000000000,0.0000000000,Pass,Pass
 Warmup Convergence Information,THERMAL ZONE 6 COLD,SizingPeriod: MOSCOW ANN CLG .4% CONDNS ENTH=>MDB HVAC Sizing Pass 2,3.8653099217E-005,9.2107703742E-005,Pass,Pass,2.0857032804E-004,1.1955357771E-004,Pass,Pass
 Warmup Convergence Information,THERMAL ZONE 7 HOT,SizingPeriod: MOSCOW ANN CLG .4% CONDNS ENTH=>MDB HVAC Sizing Pass 2,1.6947428102E-003,9.7606337621E-004,Pass,Pass,0.0000000000,0.0000000000,Pass,Pass
 Warmup Convergence Information,THERMAL ZONE 8 COLD,SizingPeriod: MOSCOW ANN CLG .4% CONDNS ENTH=>MDB HVAC Sizing Pass 2,3.7021537979E-005,8.8102824518E-005,Pass,Pass,2.3029884073E-004,1.3155131526E-004,Pass,Pass
 Warmup Convergence Information,THERMAL ZONE 9 HOT,SizingPeriod: MOSCOW ANN CLG .4% CONDNS ENTH=>MDB HVAC Sizing Pass 2,1.5434409018E-003,8.7674731200E-004,Pass,Pass,0.0000000000,0.0000000000,Pass,Pass
 Warmup Convergence Information,THERMAL ZONE SUPPLY PLENUM,SizingPeriod: MOSCOW ANN CLG .4% CONDNS ENTH=>MDB HVAC Sizing Pass 2,3.7107861475E-004,1.7865353023E-004,Pass,Pass,9.6978836868E-004,4.2891318882E-004,Pass,Pass
Environment:Design Day Data,26.40,8.30,DefaultMultipliers,Wetbulb,21.20,{C},99465,150,1.6,0.00,No,No
Environment:Design Day Misc,202,1084.4,0.2082,0.1365,1.0,-6.23,20.6,ASHRAETau
Environment:WarmupDays,  3
 Warmup Convergence Information,THERMAL ZONE 1 HOT,SizingPeriod: MOSCOW ANN CLG .4% CONDNS WB=>MDB HVAC Sizing Pass 2,4.9157594853E-003,2.6690039028E-003,Pass,Pass,0.0000000000,0.0000000000,Pass,Pass
 Warmup Convergence Information,THERMAL ZONE 10 COLD,SizingPeriod: MOSCOW ANN CLG .4% CONDNS WB=>MDB HVAC Sizing Pass 2,3.1107250648E-005,7.6848622524E-005,Pass,Pass,4.0439665714E-004,2.4765114102E-004,Pass,Pass
 Warmup Convergence Information,THERMAL ZONE 11 HOT LAST,SizingPeriod: MOSCOW ANN CLG .4% CONDNS WB=>MDB HVAC Sizing Pass 2,5.1161826404E-003,3.3093984344E-003,Pass,Pass,0.0000000000,0.0000000000,Pass,Pass
 Warmup Convergence Information,THERMAL ZONE 2 COLD,SizingPeriod: MOSCOW ANN CLG .4% CONDNS WB=>MDB HVAC Sizing Pass 2,3.2822741325E-005,8.1073081492E-005,Pass,Pass,3.4394907942E-004,1.9210749577E-004,Pass,Pass
 Warmup Convergence Information,THERMAL ZONE 3 HOT,SizingPeriod: MOSCOW ANN CLG .4% CONDNS WB=>MDB HVAC Sizing Pass 2,1.6929288864E-003,9.7457561030E-004,Pass,Pass,0.0000000000,0.0000000000,Pass,Pass
 Warmup Convergence Information,THERMAL ZONE 4 COLD,SizingPeriod: MOSCOW ANN CLG .4% CONDNS WB=>MDB HVAC Sizing Pass 2,3.3981858005E-005,8.4144629601E-005,Pass,Pass,2.0856113291E-004,1.1940027854E-004,Pass,Pass
 Warmup Convergence Information,THERMAL ZONE 5 HOT,SizingPeriod: MOSCOW ANN CLG .4% CONDNS WB=>MDB HVAC Sizing Pass 2,1.6929683856E-003,9.7457770813E-004,Pass,Pass,0.0000000000,0.0000000000,Pass,Pass
 Warmup Convergence Information,THERMAL ZONE 6 COLD,SizingPeriod: MOSCOW ANN CLG .4% CONDNS WB=>MDB HVAC Sizing Pass 2,3.3982652201E-005,8.4132424453E-005,Pass,Pass,2.0856154594E-004,1.1939920245E-004,Pass,Pass
 Warmup Convergence Information,THERMAL ZONE 7 HOT,SizingPeriod: MOSCOW ANN CLG .4% CONDNS WB=>MDB HVAC Sizing Pass 2,1.6929695817E-003,9.7450933404E-004,Pass,Pass,0.0000000000,0.0000000000,Pass,Pass
 Warmup Convergence Information,THERMAL ZONE 8 COLD,SizingPeriod: MOSCOW ANN CLG .4% CONDNS WB=>MDB HVAC Sizing Pass 2,3.2555876983E-005,8.0515864491E-005,Pass,Pass,2.3034798375E-004,1.3138928117E-004,Pass,Pass
[...]
 Warmup Convergence Information,THERMAL ZONE 3 HOT,SizingPeriod: MOSCOW ANN HTG WIND 99.6% CONDNS WS=>MCDB HVAC Sizing Pass 3,7.8868803991E-008,5.9628962045E-008,Pass,Pass,0.0000000000,0.0000000000,Pass,Pass
 Warmup Convergence Information,THERMAL ZONE 4 COLD,SizingPeriod: MOSCOW ANN HTG WIND 99.6% CONDNS WS=>MCDB HVAC Sizing Pass 3,1.1662778595E-009,2.0477387449E-015,Pass,Pass,1.2077068453E-008,9.1524678120E-009,Pass,Pass
 Warmup Convergence Information,THERMAL ZONE 5 HOT,SizingPeriod: MOSCOW ANN HTG WIND 99.6% CONDNS WS=>MCDB HVAC Sizing Pass 3,7.8868882506E-008,5.9629420548E-008,Pass,Pass,0.0000000000,0.0000000000,Pass,Pass
 Warmup Convergence Information,THERMAL ZONE 6 COLD,SizingPeriod: MOSCOW ANN HTG WIND 99.6% CONDNS WS=>MCDB HVAC Sizing Pass 3,1.1668647974E-009,1.7158683518E-015,Pass,Pass,1.2077068726E-008,9.1524667757E-009,Pass,Pass
 Warmup Convergence Information,THERMAL ZONE 7 HOT,SizingPeriod: MOSCOW ANN HTG WIND 99.6% CONDNS WS=>MCDB HVAC Sizing Pass 3,7.8868812163E-008,5.9629011467E-008,Pass,Pass,0.0000000000,0.0000000000,Pass,Pass
 Warmup Convergence Information,THERMAL ZONE 8 COLD,SizingPeriod: MOSCOW ANN HTG WIND 99.6% CONDNS WS=>MCDB HVAC Sizing Pass 3,1.1199203935E-009,1.8761856682E-015,Pass,Pass,1.4346779902E-008,1.0873976961E-008,Pass,Pass
 Warmup Convergence Information,THERMAL ZONE 9 HOT,SizingPeriod: MOSCOW ANN HTG WIND 99.6% CONDNS WS=>MCDB HVAC Sizing Pass 3,9.4609697291E-008,7.1600960456E-008,Pass,Pass,0.0000000000,0.0000000000,Pass,Pass
 Warmup Convergence Information,THERMAL ZONE SUPPLY PLENUM,SizingPeriod: MOSCOW ANN HTG WIND 99.6% CONDNS WS=>MCDB HVAC Sizing Pass 3,4.3782975054E-007,5.8050901963E-007,Pass,Pass,3.9025136376E-007,3.7970462952E-007,Pass,Pass
Environment:Design Day Data,-22.70,0.00,DefaultMultipliers,Dewpoint,-25.80,{C},99465,290,1.4,0.00,No,No
Environment:Design Day Misc, 52,1214.6,0.1445,6.0579E-002,1.0,-13.80,-10.8,ASHRAEClearSky
Environment:WarmupDays,  3
 Warmup Convergence Information,THERMAL ZONE 1 HOT,SizingPeriod: MOSCOW ANN HUM_N 99.6% CONDNS DP=>MCDB HVAC Sizing Pass 3,3.2672521023E-007,2.4369758240E-007,Pass,Pass,0.0000000000,0.0000000000,Pass,Pass
 Warmup Convergence Information,THERMAL ZONE 10 COLD,SizingPeriod: MOSCOW ANN HUM_N 99.6% CONDNS DP=>MCDB HVAC Sizing Pass 3,1.0521692554E-009,1.9450003333E-015,Pass,Pass,3.2324869978E-008,2.4135258849E-008,Pass,Pass
 Warmup Convergence Information,THERMAL ZONE 11 HOT LAST,SizingPeriod: MOSCOW ANN HUM_N 99.6% CONDNS DP=>MCDB HVAC Sizing Pass 3,3.2676985586E-007,2.4373032412E-007,Pass,Pass,0.0000000000,0.0000000000,Pass,Pass
 Warmup Convergence Information,THERMAL ZONE 2 COLD,SizingPeriod: MOSCOW ANN HUM_N 99.6% CONDNS DP=>MCDB HVAC Sizing Pass 3,1.1083153062E-009,1.9707422942E-015,Pass,Pass,2.7093933268E-008,2.0228258752E-008,Pass,Pass
 Warmup Convergence Information,THERMAL ZONE 3 HOT,SizingPeriod: MOSCOW ANN HUM_N 99.6% CONDNS DP=>MCDB HVAC Sizing Pass 3,9.7845742975E-008,7.2931860301E-008,Pass,Pass,0.0000000000,0.0000000000,Pass,Pass
 Warmup Convergence Information,THERMAL ZONE 4 COLD,SizingPeriod: MOSCOW ANN HUM_N 99.6% CONDNS DP=>MCDB HVAC Sizing Pass 3,1.1648098486E-009,2.1347099325E-015,Pass,Pass,1.5801217901E-008,1.1801258168E-008,Pass,Pass
 Warmup Convergence Information,THERMAL ZONE 5 HOT,SizingPeriod: MOSCOW ANN HUM_N 99.6% CONDNS DP=>MCDB HVAC Sizing Pass 3,9.7845843368E-008,7.2932329921E-008,Pass,Pass,0.0000000000,0.0000000000,Pass,Pass
 Warmup Convergence Information,THERMAL ZONE 6 COLD,SizingPeriod: MOSCOW ANN HUM_N 99.6% CONDNS DP=>MCDB HVAC Sizing Pass 3,1.1654300636E-009,1.7998857697E-015,Pass,Pass,1.5801218210E-008,1.1801256867E-008,Pass,Pass
 Warmup Convergence Information,THERMAL ZONE 7 HOT,SizingPeriod: MOSCOW ANN HUM_N 99.6% CONDNS DP=>MCDB HVAC Sizing Pass 3,9.7845752981E-008,7.2931920453E-008,Pass,Pass,0.0000000000,0.0000000000,Pass,Pass
 Warmup Convergence Information,THERMAL ZONE 8 COLD,SizingPeriod: MOSCOW ANN HUM_N 99.6% CONDNS DP=>MCDB HVAC Sizing Pass 3,1.1177752353E-009,2.1510712367E-015,Pass,Pass,1.8877772417E-008,1.4100140899E-008,Pass,Pass
 Warmup Convergence Information,THERMAL ZONE 9 HOT,SizingPeriod: MOSCOW ANN HUM_N 99.6% CONDNS DP=>MCDB HVAC Sizing Pass 3,1.2048339517E-007,8.9873249134E-008,Pass,Pass,0.0000000000,0.0000000000,Pass,Pass
 Warmup Convergence Information,THERMAL ZONE SUPPLY PLENUM,SizingPeriod: MOSCOW ANN HUM_N 99.6% CONDNS DP=>MCDB HVAC Sizing Pass 3,5.5465639859E-007,6.3029243873E-007,Pass,Pass,5.4928482948E-007,5.1281678736E-007,Pass,Pass
Environment:Design Day Data,31.20,10.60,DefaultMultipliers,Wetbulb,23.10,{C},96634,200,6.7,0.00,No,No
Environment:Design Day Misc,202,1084.4,0.2082,0.1365,1.0,-6.23,20.6,ASHRAETau
Environment:WarmupDays,  3
 Warmup Convergence Information,THERMAL ZONE 1 HOT,SizingPeriod: ROCHESTER INTERNATIONAL ARPT ANN CLG .4% CONDNS DB=>MWB HVAC Sizing Pass 3,4.6949655394E-003,2.4943034103E-003,Pass,Pass,0.0000000000,0.0000000000,Pass,Pass
 Warmup Convergence Information,THERMAL ZONE 10 COLD,SizingPeriod: ROCHESTER INTERNATIONAL ARPT ANN CLG .4% CONDNS DB=>MWB HVAC Sizing Pass 3,3.9434609570E-005,8.8563771689E-005,Pass,Pass,3.7099488845E-004,2.2323858450E-004,Pass,Pass
 Warmup Convergence Information,THERMAL ZONE 11 HOT LAST,SizingPeriod: ROCHESTER INTERNATIONAL ARPT ANN CLG .4% CONDNS DB=>MWB HVAC Sizing Pass 3,4.9015159583E-003,3.1155898430E-003,Pass,Pass,0.0000000000,0.0000000000,Pass,Pass
 Warmup Convergence Information,THERMAL ZONE 2 COLD,SizingPeriod: ROCHESTER INTERNATIONAL ARPT ANN CLG .4% CONDNS DB=>MWB HVAC Sizing Pass 3,4.1569922512E-005,9.3438408892E-005,Pass,Pass,3.1563219355E-004,1.7022255685E-004,Pass,Pass
 Warmup Convergence Information,THERMAL ZONE 3 HOT,SizingPeriod: ROCHESTER INTERNATIONAL ARPT ANN CLG .4% CONDNS DB=>MWB HVAC Sizing Pass 3,1.5580604590E-003,8.7264018402E-004,Pass,Pass,0.0000000000,0.0000000000,Pass,Pass
 Warmup Convergence Information,THERMAL ZONE 4 COLD,SizingPeriod: ROCHESTER INTERNATIONAL ARPT ANN CLG .4% CONDNS DB=>MWB HVAC Sizing Pass 3,4.3019493631E-005,9.6871238798E-005,Pass,Pass,1.8795091334E-004,1.0397457892E-004,Pass,Pass
 Warmup Convergence Information,THERMAL ZONE 5 HOT,SizingPeriod: ROCHESTER INTERNATIONAL ARPT ANN CLG .4% CONDNS DB=>MWB HVAC Sizing Pass 3,1.5580714330E-003,8.7268454620E-004,Pass,Pass,0.0000000000,0.0000000000,Pass,Pass
 Warmup Convergence Information,THERMAL ZONE 6 COLD,SizingPeriod: ROCHESTER INTERNATIONAL ARPT ANN CLG .4% CONDNS DB=>MWB HVAC Sizing Pass 3,4.3014667222E-005,9.6855877653E-005,Pass,Pass,1.8795072119E-004,1.0397454398E-004,Pass,Pass
 Warmup Convergence Information,THERMAL ZONE 7 HOT,SizingPeriod: ROCHESTER INTERNATIONAL ARPT ANN CLG .4% CONDNS DB=>MWB HVAC Sizing Pass 3,1.5580598578E-003,8.7263447462E-004,Pass,Pass,0.0000000000,0.0000000000,Pass,Pass
 Warmup Convergence Information,THERMAL ZONE 8 COLD,SizingPeriod: ROCHESTER INTERNATIONAL ARPT ANN CLG .4% CONDNS DB=>MWB HVAC Sizing Pass 3,4.1229790351E-005,9.2696777883E-005,Pass,Pass,2.0846656689E-004,1.1472090543E-004,Pass,Pass
 Warmup Convergence Information,THERMAL ZONE 9 HOT,SizingPeriod: ROCHESTER INTERNATIONAL ARPT ANN CLG .4% CONDNS DB=>MWB HVAC Sizing Pass 3,1.4433155036E-003,7.9179923966E-004,Pass,Pass,0.0000000000,0.0000000000,Pass,Pass
 Warmup Convergence Information,THERMAL ZONE SUPPLY PLENUM,SizingPeriod: ROCHESTER INTERNATIONAL ARPT ANN CLG .4% CONDNS DB=>MWB HVAC Sizing Pass 3,3.5549496687E-004,1.7366672220E-004,Pass,Pass,9.2246028104E-004,4.0467690763E-004,Pass,Pass
Environment:Design Day Data,-26.20,0.00,DefaultMultipliers,Wetbulb,-26.20,{C},96634,310,5.7,0.00,No,No
Environment:Design Day Misc, 21,1229.0,0.1415,5.7310E-002,1.0,-11.15,-20.1,ASHRAEClearSky
Environment:WarmupDays,  3
 Warmup Convergence Information,THERMAL ZONE 1 HOT,SizingPeriod: ROCHESTER INTERNATIONAL ARPT ANN HTG 99.6% CONDNS DB HVAC Sizing Pass 3,3.4824093701E-007,2.5802094121E-007,Pass,Pass,0.0000000000,0.0000000000,Pass,Pass
 Warmup Convergence Information,THERMAL ZONE 10 COLD,SizingPeriod: ROCHESTER INTERNATIONAL ARPT ANN HTG 99.6% CONDNS DB HVAC Sizing Pass 3,1.0915216582E-009,1.9957131706E-015,Pass,Pass,3.3914233634E-008,2.5153604324E-008,Pass,Pass
 Warmup Convergence Information,THERMAL ZONE 11 HOT LAST,SizingPeriod: ROCHESTER INTERNATIONAL ARPT ANN HTG 99.6% CONDNS DB HVAC Sizing Pass 3,3.4832293861E-007,2.5808114540E-007,Pass,Pass,0.0000000000,0.0000000000,Pass,Pass
 Warmup Convergence Information,THERMAL ZONE 2 COLD,SizingPeriod: ROCHESTER INTERNATIONAL ARPT ANN HTG 99.6% CONDNS DB HVAC Sizing Pass 3,1.1490241647E-009,1.8827147954E-015,Pass,Pass,2.8099806309E-008,2.0840582116E-008,Pass,Pass
 Warmup Convergence Information,THERMAL ZONE 3 HOT,SizingPeriod: ROCHESTER INTERNATIONAL ARPT ANN HTG 99.6% CONDNS DB HVAC Sizing Pass 3,9.5141690289E-008,7.0449888468E-008,Pass,Pass,0.0000000000,0.0000000000,Pass,Pass
 Warmup Convergence Information,THERMAL ZONE 4 COLD,SizingPeriod: ROCHESTER INTERNATIONAL ARPT ANN HTG 99.6% CONDNS DB HVAC Sizing Pass 3,1.2072922514E-009,1.9884532077E-015,Pass,Pass,1.6042224346E-008,1.1902765333E-008,Pass,Pass
 Warmup Convergence Information,THERMAL ZONE 5 HOT,SizingPeriod: ROCHESTER INTERNATIONAL ARPT ANN HTG 99.6% CONDNS DB HVAC Sizing Pass 3,9.5141809571E-008,7.0450398241E-008,Pass,Pass,0.0000000000,0.0000000000,Pass,Pass
 Warmup Convergence Information,THERMAL ZONE 6 COLD,SizingPeriod: ROCHESTER INTERNATIONAL ARPT ANN HTG 99.6% CONDNS DB HVAC Sizing Pass 3,1.2079235390E-009,1.7910986427E-015,Pass,Pass,1.6042224727E-008,1.1902763955E-008,Pass,Pass
 Warmup Convergence Information,THERMAL ZONE 7 HOT,SizingPeriod: ROCHESTER INTERNATIONAL ARPT ANN HTG 99.6% CONDNS DB HVAC Sizing Pass 3,9.5141702842E-008,7.0449957547E-008,Pass,Pass,0.0000000000,0.0000000000,Pass,Pass
 Warmup Convergence Information,THERMAL ZONE 8 COLD,SizingPeriod: ROCHESTER INTERNATIONAL ARPT ANN HTG 99.6% CONDNS DB HVAC Sizing Pass 3,1.1593126755E-009,1.9456761891E-015,Pass,Pass,1.9514716148E-008,1.4479408801E-008,Pass,Pass
 Warmup Convergence Information,THERMAL ZONE 9 HOT,SizingPeriod: ROCHESTER INTERNATIONAL ARPT ANN HTG 99.6% CONDNS DB HVAC Sizing Pass 3,1.2749734137E-007,9.4467524362E-008,Pass,Pass,0.0000000000,0.0000000000,Pass,Pass
 Warmup Convergence Information,THERMAL ZONE SUPPLY PLENUM,SizingPeriod: ROCHESTER INTERNATIONAL ARPT ANN HTG 99.6% CONDNS DB HVAC Sizing Pass 3,5.6256167727E-007,6.2388956495E-007,Pass,Pass,5.6787214043E-007,5.1943650959E-007,Pass,Pass
Plant Coincident Sizing Algorithm,CONDENSER WATER LOOP,3,1228.4356954,924512.26,39.6414917,No,1.578701,1.578701,No,1.2850,0.000000,4197.9300,999.8980
Environment:Design Day Data,28.40,8.30,DefaultMultipliers,Wetbulb,20.10,{C},99465,150,1.6,0.00,No,No
Environment:Design Day Misc,202,1084.4,0.2082,0.1365,1.0,-6.23,20.6,ASHRAETau
Environment:Design Day Data,24.00,8.30,DefaultMultipliers,Dewpoint,19.30,{C},99465,150,1.6,0.00,No,No
Environment:Design Day Misc,202,1084.4,0.2082,0.1365,1.0,-6.23,20.6,ASHRAETau
Environment:Design Day Data,26.60,8.30,DefaultMultipliers,Enthalpy,62300.00,{J/kgDryAir},99465,150,1.6,0.00,No,No
Environment:Design Day Misc,202,1084.4,0.2082,0.1365,1.0,-6.23,20.6,ASHRAETau
Environment:Design Day Data,26.40,8.30,DefaultMultipliers,Wetbulb,21.20,{C},99465,150,1.6,0.00,No,No
Environment:Design Day Misc,202,1084.4,0.2082,0.1365,1.0,-6.23,20.6,ASHRAETau
Environment:Design Day Data,-23.10,0.00,DefaultMultipliers,Wetbulb,-23.10,{C},99465,290,1.4,0.00,No,No
Environment:Design Day Misc, 52,1214.6,0.1445,6.0579E-002,1.0,-13.80,-10.8,ASHRAEClearSky
Environment:Design Day Data,-8.20,0.00,DefaultMultipliers,Wetbulb,-8.20,{C},99465,290,8.0,0.00,No,No
Environment:Design Day Misc, 52,1214.6,0.1445,6.0579E-002,1.0,-13.80,-10.8,ASHRAEClearSky
Environment:Design Day Data,-22.70,0.00,DefaultMultipliers,Dewpoint,-25.80,{C},99465,290,1.4,0.00,No,No
Environment:Design Day Misc, 52,1214.6,0.1445,6.0579E-002,1.0,-13.80,-10.8,ASHRAEClearSky
Environment:Design Day Data,31.20,10.60,DefaultMultipliers,Wetbulb,23.10,{C},96634,200,6.7,0.00,No,No
Environment:Design Day Misc,202,1084.4,0.2082,0.1365,1.0,-6.23,20.6,ASHRAETau
Environment:Design Day Data,-26.20,0.00,DefaultMultipliers,Wetbulb,-26.20,{C},96634,310,5.7,0.00,No,No
Environment:Design Day Misc, 21,1229.0,0.1415,5.7310E-002,1.0,-11.15,-20.1,ASHRAEClearSky
Environment,RUN PERIOD 1,WeatherFileRunPeriod,07/01/2006,07/30/2006,Saturday,30,Use RunPeriod Specified Day,No,No,No,Yes,Yes,Clark and Allen
Environment:Design Day Data,28.40,8.30,DefaultMultipliers,Wetbulb,20.10,{C},99465,150,1.6,0.00,No,No
Environment:Design Day Misc,202,1084.4,0.2082,0.1365,1.0,-6.23,20.6,ASHRAETau
Environment:Design Day Data,24.00,8.30,DefaultMultipliers,Dewpoint,19.30,{C},99465,150,1.6,0.00,No,No
Environment:Design Day Misc,202,1084.4,0.2082,0.1365,1.0,-6.23,20.6,ASHRAETau
Environment:Design Day Data,26.60,8.30,DefaultMultipliers,Enthalpy,62300.00,{J/kgDryAir},99465,150,1.6,0.00,No,No
Environment:Design Day Misc,202,1084.4,0.2082,0.1365,1.0,-6.23,20.6,ASHRAETau
Environment:Design Day Data,26.40,8.30,DefaultMultipliers,Wetbulb,21.20,{C},99465,150,1.6,0.00,No,No
Environment:Design Day Misc,202,1084.4,0.2082,0.1365,1.0,-6.23,20.6,ASHRAETau
Environment:Design Day Data,-23.10,0.00,DefaultMultipliers,Wetbulb,-23.10,{C},99465,290,1.4,0.00,No,No
Environment:Design Day Misc, 52,1214.6,0.1445,6.0579E-002,1.0,-13.80,-10.8,ASHRAEClearSky
Environment:Design Day Data,-8.20,0.00,DefaultMultipliers,Wetbulb,-8.20,{C},99465,290,8.0,0.00,No,No
Environment:Design Day Misc, 52,1214.6,0.1445,6.0579E-002,1.0,-13.80,-10.8,ASHRAEClearSky
Environment:Design Day Data,-22.70,0.00,DefaultMultipliers,Dewpoint,-25.80,{C},99465,290,1.4,0.00,No,No
Environment:Design Day Misc, 52,1214.6,0.1445,6.0579E-002,1.0,-13.80,-10.8,ASHRAEClearSky
Environment:Design Day Data,31.20,10.60,DefaultMultipliers,Wetbulb,23.10,{C},96634,200,6.7,0.00,No,No
Environment:Design Day Misc,202,1084.4,0.2082,0.1365,1.0,-6.23,20.6,ASHRAETau
Environment:Design Day Data,-26.20,0.00,DefaultMultipliers,Wetbulb,-26.20,{C},96634,310,5.7,0.00,No,No
Environment:Design Day Misc, 21,1229.0,0.1415,5.7310E-002,1.0,-11.15,-20.1,ASHRAEClearSky
Environment:Design Day Data,28.40,8.30,DefaultMultipliers,Wetbulb,20.10,{C},99465,150,1.6,0.00,No,No
Environment:Design Day Misc,202,1084.4,0.2082,0.1365,1.0,-6.23,20.6,ASHRAETau
Environment:Design Day Data,24.00,8.30,DefaultMultipliers,Dewpoint,19.30,{C},99465,150,1.6,0.00,No,No
Environment:Design Day Misc,202,1084.4,0.2082,0.1365,1.0,-6.23,20.6,ASHRAETau
Environment:Design Day Data,26.60,8.30,DefaultMultipliers,Enthalpy,62300.00,{J/kgDryAir},99465,150,1.6,0.00,No,No
Environment:Design Day Misc,202,1084.4,0.2082,0.1365,1.0,-6.23,20.6,ASHRAETau
Environment:Design Day Data,26.40,8.30,DefaultMultipliers,Wetbulb,21.20,{C},99465,150,1.6,0.00,No,No
Environment:Design Day Misc,202,1084.4,0.2082,0.1365,1.0,-6.23,20.6,ASHRAETau
Environment:Design Day Data,-23.10,0.00,DefaultMultipliers,Wetbulb,-23.10,{C},99465,290,1.4,0.00,No,No
Environment:Design Day Misc, 52,1214.6,0.1445,6.0579E-002,1.0,-13.80,-10.8,ASHRAEClearSky
Environment:Design Day Data,-8.20,0.00,DefaultMultipliers,Wetbulb,-8.20,{C},99465,290,8.0,0.00,No,No
Environment:Design Day Misc, 52,1214.6,0.1445,6.0579E-002,1.0,-13.80,-10.8,ASHRAEClearSky
Environment:Design Day Data,-22.70,0.00,DefaultMultipliers,Dewpoint,-25.80,{C},99465,290,1.4,0.00,No,No
Environment:Design Day Misc, 52,1214.6,0.1445,6.0579E-002,1.0,-13.80,-10.8,ASHRAEClearSky
Environment:Design Day Data,31.20,10.60,DefaultMultipliers,Wetbulb,23.10,{C},96634,200,6.7,0.00,No,No
Environment:Design Day Misc,202,1084.4,0.2082,0.1365,1.0,-6.23,20.6,ASHRAETau
Environment:Design Day Data,-26.20,0.00,DefaultMultipliers,Wetbulb,-26.20,{C},96634,310,5.7,0.00,No,No
Environment:Design Day Misc, 21,1229.0,0.1415,5.7310E-002,1.0,-11.15,-20.1,ASHRAEClearSky
Environment:Design Day Data,28.40,8.30,DefaultMultipliers,Wetbulb,20.10,{C},99465,150,1.6,0.00,No,No
Environment:Design Day Misc,202,1084.4,0.2082,0.1365,1.0,-6.23,20.6,ASHRAETau
Environment:Design Day Data,24.00,8.30,DefaultMultipliers,Dewpoint,19.30,{C},99465,150,1.6,0.00,No,No
Environment:Design Day Misc,202,1084.4,0.2082,0.1365,1.0,-6.23,20.6,ASHRAETau
Environment:Design Day Data,26.60,8.30,DefaultMultipliers,Enthalpy,62300.00,{J/kgDryAir},99465,150,1.6,0.00,No,No
Environment:Design Day Misc,202,1084.4,0.2082,0.1365,1.0,-6.23,20.6,ASHRAETau
Environment:Design Day Data,26.40,8.30,DefaultMultipliers,Wetbulb,21.20,{C},99465,150,1.6,0.00,No,No
Environment:Design Day Misc,202,1084.4,0.2082,0.1365,1.0,-6.23,20.6,ASHRAETau
Environment:Design Day Data,-23.10,0.00,DefaultMultipliers,Wetbulb,-23.10,{C},99465,290,1.4,0.00,No,No
Environment:Design Day Misc, 52,1214.6,0.1445,6.0579E-002,1.0,-13.80,-10.8,ASHRAEClearSky
Environment:Design Day Data,-8.20,0.00,DefaultMultipliers,Wetbulb,-8.20,{C},99465,290,8.0,0.00,No,No
Environment:Design Day Misc, 52,1214.6,0.1445,6.0579E-002,1.0,-13.80,-10.8,ASHRAEClearSky
Environment:Design Day Data,-22.70,0.00,DefaultMultipliers,Dewpoint,-25.80,{C},99465,290,1.4,0.00,No,No
Environment:Design Day Misc, 52,1214.6,0.1445,6.0579E-002,1.0,-13.80,-10.8,ASHRAEClearSky
Environment:Design Day Data,31.20,10.60,DefaultMultipliers,Wetbulb,23.10,{C},96634,200,6.7,0.00,No,No
Environment:Design Day Misc,202,1084.4,0.2082,0.1365,1.0,-6.23,20.6,ASHRAETau
Environment:Design Day Data,-26.20,0.00,DefaultMultipliers,Wetbulb,-26.20,{C},96634,310,5.7,0.00,No,No
Environment:Design Day Misc, 21,1229.0,0.1415,5.7310E-002,1.0,-11.15,-20.1,ASHRAEClearSky
Environment,RUN PERIOD 1,WeatherFileRunPeriod,07/01/2006,07/30/2006,Saturday,30,Use RunPeriod Specified Day,No,No,No,Yes,Yes,Clark and Allen
Environment:Daylight Saving,Yes,InputFile,03/12,11/05
Environment:WarmupDays,  3
 Warmup Convergence Information,THERMAL ZONE 1 HOT,RunPeriod: RUN PERIOD 1,0.8258009793,0.3785091665,Pass,Pass,0.0000000000,0.0000000000,Pass,Pass
 Warmup Convergence Information,THERMAL ZONE 10 COLD,RunPeriod: RUN PERIOD 1,1.6026530700,0.5948994973,Pass,Pass,2.0984359284E-002,9.7183358672E-003,Pass,Pass
 Warmup Convergence Information,THERMAL ZONE 11 HOT LAST,RunPeriod: RUN PERIOD 1,0.8475763484,0.3841031535,Pass,Pass,0.0000000000,0.0000000000,Pass,Pass
 Warmup Convergence Information,THERMAL ZONE 2 COLD,RunPeriod: RUN PERIOD 1,1.5750244571,0.5883873473,Pass,Pass,1.9117588280E-002,8.9037306842E-003,Pass,Pass
 Warmup Convergence Information,THERMAL ZONE 3 HOT,RunPeriod: RUN PERIOD 1,0.9717696396,0.4453694206,Pass,Pass,0.0000000000,0.0000000000,Pass,Pass
 Warmup Convergence Information,THERMAL ZONE 4 COLD,RunPeriod: RUN PERIOD 1,1.5515875692,0.5830590411,Pass,Pass,1.2207416457E-002,6.3018902780E-003,Pass,Pass
 Warmup Convergence Information,THERMAL ZONE 5 HOT,RunPeriod: RUN PERIOD 1,0.9612309773,0.4426668087,Pass,Pass,0.0000000000,0.0000000000,Pass,Pass
 Warmup Convergence Information,THERMAL ZONE 6 COLD,RunPeriod: RUN PERIOD 1,1.5515875531,0.5830591082,Pass,Pass,1.2194966485E-002,6.2925309451E-003,Pass,Pass
 Warmup Convergence Information,THERMAL ZONE 7 HOT,RunPeriod: RUN PERIOD 1,0.9734757562,0.4458028268,Pass,Pass,0.0000000000,0.0000000000,Pass,Pass
 Warmup Convergence Information,THERMAL ZONE 8 COLD,RunPeriod: RUN PERIOD 1,1.5787263721,0.5893911374,Pass,Pass,1.3098815211E-002,6.6592766126E-003,Pass,Pass
 Warmup Convergence Information,THERMAL ZONE 9 HOT,RunPeriod: RUN PERIOD 1,1.0598089834,0.4620997526,Pass,Pass,0.0000000000,0.0000000000,Pass,Pass
 Warmup Convergence Information,THERMAL ZONE SUPPLY PLENUM,RunPeriod: RUN PERIOD 1,3.6995238295,0.5264151498,Pass,Pass,0.6297726548,0.2670966000,Pass,Pass
! <Program Control Information:Threads/Parallel Sims>, Threading Supported,Maximum Number of Threads, Env Set Threads (OMP_NUM_THREADS), EP Env Set Threads (EP_OMP_NUM_THREADS), IDF Set Threads, Number of Threads Used (Interior Radiant Exchange), Number Nominal Surfaces, Number Parallel Sims
Program Control:Threads/Parallel Sims, No,1, N/A, N/A, N/A, N/A, N/A, N/A
End of Data
