Program Version,EnergyPlus, Version 23.1.0-87ed9199d4, YMD=2023.07.17 17:34,
   ************* Beginning Zone Sizing Calculations
   ** Warning ** ProcessScheduleInput: Schedule:Day:Interval="ECONOMIZER MAX OA FRACTION 70 PCT DEFAULT", Blank Schedule Type Limits Name input -- will not be validated.
   ** Warning ** GetHTSurfaceData: Surfaces with interface to Ground found but no "Ground Temperatures" were input.
   **   ~~~   ** Found first in surface=FACE 0
   **   ~~~   ** Defaults, constant throughout the year of (18.0) will be used.
   ** Warning ** CheckUsedConstructions: There are 12 nominally unused constructions in input.
   **   ~~~   ** For explicit details on each unused construction, use Output:Diagnostics,DisplayExtraWarnings;
   ** Warning ** Calculated design heating load for zone=THERMAL ZONE 10 COLD is zero.
   **   ~~~   ** Check Sizing:Zone and ZoneControl:Thermostat inputs.
   ** Warning ** Calculated design heating load for zone=THERMAL ZONE 2 COLD is zero.
   **   ~~~   ** Check Sizing:Zone and ZoneControl:Thermostat inputs.
   ** Warning ** Calculated design heating load for zone=THERMAL ZONE 4 COLD is zero.
   **   ~~~   ** Check Sizing:Zone and ZoneControl:Thermostat inputs.
   ** Warning ** Calculated design heating load for zone=THERMAL ZONE 6 COLD is zero.
   **   ~~~   ** Check Sizing:Zone and ZoneControl:Thermostat inputs.
   ** Warning ** Calculated design heating load for zone=THERMAL ZONE 8 COLD is zero.
   **   ~~~   ** Check Sizing:Zone and ZoneControl:Thermostat inputs.
   ** Warning ** UpdateZoneSizing: Cooling supply air temperature (calculated) within 5C of zone temperature
   **   ~~~   ** ...check zone thermostat set point and design supply air temperatures
   **   ~~~   ** ...zone name = THERMAL ZONE 10 COLD
   **   ~~~   ** ...design sensible cooling load = 81197.14 W
   **   ~~~   ** ...thermostat set point temp    = 0.000 C
   **   ~~~   ** ...zone temperature             = 15.000 C
   **   ~~~   ** ...supply air temperature       = 12.778 C
   **   ~~~   ** ...temperature difference       = -2.22222 C
   **   ~~~   ** ...calculated volume flow rate  = 30.28232 m3/s
   **   ~~~   ** ...calculated mass flow rate    = 35.79977 kg/s
   ** Warning ** UpdateZoneSizing: Cooling supply air temperature (calculated) within 5C of zone temperature
   **   ~~~   ** ...check zone thermostat set point and design supply air temperatures
   **   ~~~   ** ...zone name = THERMAL ZONE 2 COLD
   **   ~~~   ** ...design sensible cooling load = 89483.94 W
   **   ~~~   ** ...thermostat set point temp    = 0.000 C
   **   ~~~   ** ...zone temperature             = 15.000 C
   **   ~~~   ** ...supply air temperature       = 12.778 C
   **   ~~~   ** ...temperature difference       = -2.22222 C
   **   ~~~   ** ...calculated volume flow rate  = 33.37286 m3/s
   **   ~~~   ** ...calculated mass flow rate    = 39.45342 kg/s
   ** Warning ** UpdateZoneSizing: Cooling supply air temperature (calculated) within 5C of zone temperature
   **   ~~~   ** ...check zone thermostat set point and design supply air temperatures
   **   ~~~   ** ...zone name = THERMAL ZONE 4 COLD
   **   ~~~   ** ...design sensible cooling load = 71375.13 W
   **   ~~~   ** ...thermostat set point temp    = 0.000 C
   **   ~~~   ** ...zone temperature             = 15.000 C
   **   ~~~   ** ...supply air temperature       = 12.778 C
   **   ~~~   ** ...temperature difference       = -2.22222 C
   **   ~~~   ** ...calculated volume flow rate  = 26.61922 m3/s
   **   ~~~   ** ...calculated mass flow rate    = 31.46925 kg/s
   ** Warning ** UpdateZoneSizing: Cooling supply air temperature (calculated) within 5C of zone temperature
   **   ~~~   ** ...check zone thermostat set point and design supply air temperatures
   **   ~~~   ** ...zone name = THERMAL ZONE 6 COLD
   **   ~~~   ** ...design sensible cooling load = 71375.13 W
   **   ~~~   ** ...thermostat set point temp    = 0.000 C
   **   ~~~   ** ...zone temperature             = 15.000 C
   **   ~~~   ** ...supply air temperature       = 12.778 C
   **   ~~~   ** ...temperature difference       = -2.22222 C
   **   ~~~   ** ...calculated volume flow rate  = 26.61922 m3/s
   **   ~~~   ** ...calculated mass flow rate    = 31.46925 kg/s
   ** Warning ** UpdateZoneSizing: Cooling supply air temperature (calculated) within 5C of zone temperature
   **   ~~~   ** ...check zone thermostat set point and design supply air temperatures
   **   ~~~   ** ...zone name = THERMAL ZONE 8 COLD
   **   ~~~   ** ...design sensible cooling load = 63038.49 W
   **   ~~~   ** ...thermostat set point temp    = 0.000 C
   **   ~~~   ** ...zone temperature             = 15.000 C
   **   ~~~   ** ...supply air temperature       = 12.778 C
   **   ~~~   ** ...temperature difference       = -2.22222 C
   **   ~~~   ** ...calculated volume flow rate  = 23.51008 m3/s
   **   ~~~   ** ...calculated mass flow rate    = 27.79363 kg/s
   ************* Beginning System Sizing Calculations
   ** Warning ** Since Zone Minimum Air Flow Input Method = CONSTANT, input for Fixed Minimum Air Flow Rate will be ignored.
   **   ~~~   ** Occurs in AirTerminal:SingleDuct:VAV:NoReheat = DATACENTER ZN VAV TERMINAL 11
   ** Warning ** Since Zone Minimum Air Flow Input Method = CONSTANT, input for Fixed Minimum Air Flow Rate will be ignored.
   **   ~~~   ** Occurs in AirTerminal:SingleDuct:VAV:NoReheat = DATACENTER ZN VAV TERMINAL 4
   ** Warning ** Since Zone Minimum Air Flow Input Method = CONSTANT, input for Fixed Minimum Air Flow Rate will be ignored.
   **   ~~~   ** Occurs in AirTerminal:SingleDuct:VAV:NoReheat = DATACENTER ZN VAV TERMINAL 6
   ** Warning ** Since Zone Minimum Air Flow Input Method = CONSTANT, input for Fixed Minimum Air Flow Rate will be ignored.
   **   ~~~   ** Occurs in AirTerminal:SingleDuct:VAV:NoReheat = DATACENTER ZN VAV TERMINAL 8
   ** Warning ** Since Zone Minimum Air Flow Input Method = CONSTANT, input for Fixed Minimum Air Flow Rate will be ignored.
   **   ~~~   ** Occurs in AirTerminal:SingleDuct:VAV:NoReheat = DATACENTER ZN VAV TERMINAL 10
   ************* Beginning Plant Sizing Calculations
   ** Warning ** GetOAControllerInputs: Controller:MechanicalVentilation="CRAH VENT CONTROLLER"
   **   ~~~   ** Cannot locate a matching DesignSpecification:ZoneAirDistribution object for Zone="THERMAL ZONE 10 COLD".
   **   ~~~   ** Using default zone air distribution effectiveness of 1.0 for heating and cooling.
   ** Warning ** GetOAControllerInputs: Controller:MechanicalVentilation="CRAH VENT CONTROLLER"
   **   ~~~   ** Cannot locate a matching DesignSpecification:ZoneAirDistribution object for Zone="THERMAL ZONE 2 COLD".
   **   ~~~   ** Using default zone air distribution effectiveness of 1.0 for heating and cooling.
   ** Warning ** GetOAControllerInputs: Controller:MechanicalVentilation="CRAH VENT CONTROLLER"
   **   ~~~   ** Cannot locate a matching DesignSpecification:ZoneAirDistribution object for Zone="THERMAL ZONE 4 COLD".
   **   ~~~   ** Using default zone air distribution effectiveness of 1.0 for heating and cooling.
   ** Warning ** GetOAControllerInputs: Controller:MechanicalVentilation="CRAH VENT CONTROLLER"
   **   ~~~   ** Cannot locate a matching DesignSpecification:ZoneAirDistribution object for Zone="THERMAL ZONE 6 COLD".
   **   ~~~   ** Using default zone air distribution effectiveness of 1.0 for heating and cooling.
   ** Warning ** GetOAControllerInputs: Controller:MechanicalVentilation="CRAH VENT CONTROLLER"
   **   ~~~   ** Cannot locate a matching DesignSpecification:ZoneAirDistribution object for Zone="THERMAL ZONE 8 COLD".
   **   ~~~   ** Using default zone air distribution effectiveness of 1.0 for heating and cooling.
   ** Warning ** Controller:MechanicalVentilation = "CRAH VENT CONTROLLER", Zone="THERMAL ZONE 10 COLD".
   **   ~~~   ** No "PEOPLE" object has been specified in the idf for this zone, but the ventilation rate is > 0 in this Controller:MechanicalVentilation Object.
   **   ~~~   ** Check ventilation rate in Controller:MechanicalVentilation object.  Simulation will continue.
   ** Warning ** Controller:MechanicalVentilation = "CRAH VENT CONTROLLER", Zone="THERMAL ZONE 2 COLD".
   **   ~~~   ** No "PEOPLE" object has been specified in the idf for this zone, but the ventilation rate is > 0 in this Controller:MechanicalVentilation Object.
   **   ~~~   ** Check ventilation rate in Controller:MechanicalVentilation object.  Simulation will continue.
   ** Warning ** Controller:MechanicalVentilation = "CRAH VENT CONTROLLER", Zone="THERMAL ZONE 4 COLD".
   **   ~~~   ** No "PEOPLE" object has been specified in the idf for this zone, but the ventilation rate is > 0 in this Controller:MechanicalVentilation Object.
   **   ~~~   ** Check ventilation rate in Controller:MechanicalVentilation object.  Simulation will continue.
   ** Warning ** Controller:MechanicalVentilation = "CRAH VENT CONTROLLER", Zone="THERMAL ZONE 6 COLD".
   **   ~~~   ** No "PEOPLE" object has been specified in the idf for this zone, but the ventilation rate is > 0 in this Controller:MechanicalVentilation Object.
   **   ~~~   ** Check ventilation rate in Controller:MechanicalVentilation object.  Simulation will continue.
   ** Warning ** Controller:MechanicalVentilation = "CRAH VENT CONTROLLER", Zone="THERMAL ZONE 8 COLD".
   **   ~~~   ** No "PEOPLE" object has been specified in the idf for this zone, but the ventilation rate is > 0 in this Controller:MechanicalVentilation Object.
   **   ~~~   ** Check ventilation rate in Controller:MechanicalVentilation object.  Simulation will continue.
   ** Warning ** In calculating the design coil UA for Coil:Cooling:Water CRAH WATER CLG COIL
   **   ~~~   ** the coil bypass factor is unrealistically large;
   **   ~~~   ** The initial design conditions are: Tair,in = 15.0045
   **   ~~~   **                                    Wair,in = 8.501067E-003
   **   ~~~   **                                    Twater,in = 6.6667
   **   ~~~   **                                    Tair,out = 10.9201
   **   ~~~   **                                    Wair,out = 8.500000E-003
   ************* Testing Individual Branch Integrity
   ************* All Branches passed integrity testing
   ************* Testing Individual Supply Air Path Integrity
   ************* All Supply Air Paths passed integrity testing
   ************* Testing Individual Return Air Path Integrity
   ************* All Return Air Paths passed integrity testing
   ************* No node connection errors were found.
   ** Severe  ** CheckWarmupConvergence: Loads Initialization, Zone="THERMAL ZONE SUPPLY PLENUM" did not converge after 50 warmup days.
   **   ~~~   ** See Warmup Convergence Information in .eio file for details.
   **   ~~~   ** ...Environment(SizingPeriod)="MOSCOW ANN CLG .4% CONDNS DP=>MDB HVAC Sizing Pass 1"
   **   ~~~   ** ..Max Temp Comparison = 1.86E-002 vs Temperature Convergence Tolerance=0.40 - Pass Convergence
   **   ~~~   ** ..Min Temp Comparison = 9.78E-003 vs Temperature Convergence Tolerance=0.40 - Pass Convergence
   **   ~~~   ** ..Max Heat Load Comparison = 5.1366E-002 vs Loads Convergence Tolerance=4.00E-002 - Fail Convergence
   **   ~~~   ** ..Max Cool Load Comparison = 0.3468 vs Loads Convergence Tolerance=4.00E-002 - Fail Convergence
   ************* Beginning Simulation
   ** Severe  ** ExternalInterface: Socket communication received error value "-1" at time = 8.33E-002 hours.
   **   ~~~   ** ExternalInterface: Flag from server " 0".
   **  Fatal  ** Error in ExternalInterface: Check EnergyPlus *.err file.
   ...Summary of Errors that led to program termination:
   ..... Reference severe error count=2
   ..... Last severe error=ExternalInterface: Socket communication received error value "-1" at time = 8.33E-002 hours.
   *************
   ************* ===== Final Error Summary =====
   ************* The following error categories occurred.  Consider correcting or noting.
   ************* Loads Initialization did not Converge
   ************* ..1) very high thermal mass such as very thick concrete (solution: increase max number of warmup
   ************* ..   days in the BUILDING object);
   ************* ..2) moderate mass and inadequate space conditioning such that the building keeps